
-------------------------------------------------------------------------
|    ___ _   _ ___                                                      |
|   / __| | | |_  )   Release 8.3.0 "Harrier"                           |
|   \__ \ |_| |/ /                                                      |
|   |___/\___//___|   Suite (Computational Fluid Dynamics Code)         |
|                                                                       |
-------------------------------------------------------------------------
| SU2 Project Website: https://su2code.github.io                        |
|                                                                       |
| The SU2 Project is maintained by the SU2 Foundation                   |
| (http://su2foundation.org)                                            |
-------------------------------------------------------------------------
| Copyright 2012-2025, SU2 Contributors                                 |
|                                                                       |
| SU2 is free software; you can redistribute it and/or                  |
| modify it under the terms of the GNU Lesser General Public            |
| License as published by the Free Software Foundation; either          |
| version 2.1 of the License, or (at your option) any later version.    |
|                                                                       |
| SU2 is distributed in the hope that it will be useful,                |
| but WITHOUT ANY WARRANTY; without even the implied warranty of        |
| MERCHANTABILITY or FITNESS FOR A PARTICULAR PURPOSE. See the GNU      |
| Lesser General Public License for more details.                       |
|                                                                       |
| You should have received a copy of the GNU Lesser General Public      |
| License along with SU2. If not, see <http://www.gnu.org/licenses/>.   |
-------------------------------------------------------------------------

Parsing config file for zone 0

----------------- Physical Case Definition ( Zone 0 ) -------------------
Compressible Laminar Navier-Stokes' equations.
Mach number: 0.05.
Angle of attack (AoA): 0 deg, and angle of sideslip (AoS): 0 deg.
Reynolds number: 1000. Reference length 1.
Performing a dynamic mesh simulation: no direct movement.
No restart solution, use the values at infinity (freestream).
Dimensional simulation.
The reference area is 1 m^2.
The semi-span will be computed using the max y(3D) value.
The reference length is 1 m.
Surface(s) where the force coefficients are evaluated and 
their reference origin for moment computation: 
   - y_plus (0.25, 0, 0).
   - x_minus (0.25, 0, 0).
   - x_plus (0.25, 0, 0).
   - y_minus (0.25, 0, 0) m.
Surface(s) plotted in the output file: y_plus, x_minus, x_plus, y_minus.
Surface(s) in motion: y_plus.
Input mesh file name: mesh.su2

--------------- Space Numerical Integration ( Zone 0 ) ------------------
Roe (with entropy fix = 0.001) solver for the flow inviscid terms.
Standard Roe without low-dissipation function.
Second order integration in space, with slope limiter.
No slope-limiting method. 
Average of gradients with correction (viscous flow terms).
Gradient for upwind reconstruction: inverse-distance weighted Least-Squares.
Gradient for viscous and source terms: inverse-distance weighted Least-Squares.

--------------- Time Numerical Integration  ( Zone 0 ) ------------------
Local time stepping (steady state simulation).
Euler implicit method for the flow equations.
AMGX is used for solving the linear system.
AMGX uses its own internal solver/preconditioner configuration.
Convergence criteria of the linear solver: 1e-06.
Max number of linear iterations: 50.
No CFL adaptation.
Courant-Friedrichs-Lewy number:       20

------------------ Convergence Criteria  ( Zone 0 ) ---------------------
Maximum number of solver subiterations: 2000.
Begin convergence monitoring at iteration 10.
Residual minimum value: 1e-12.
Cauchy series min. value: 1e-12.
Number of Cauchy elements: 100.
Begin windowed time average at iteration 0.

-------------------- Output Information ( Zone 0 ) ----------------------
File writing frequency: 
+------------------------------------+
|                     File| Frequency|
+------------------------------------+
|                  RESTART|      2000|
|                 PARAVIEW|      2000|
+------------------------------------+
Writing the convergence history file every 1 inner iterations.
Writing the screen convergence history every 1 inner iterations.
The tabular file format is CSV (.csv).
Convergence history file name: history_amgx.
Forces breakdown file name: forces_breakdown.dat.
Surface file name: surface_flow_amgx.
Volume file name: flow_amgx.
Restart file name: restart_flow_amgx.

------------- Config File Boundary Information ( Zone 0 ) ---------------
+-----------------------------------------------------------------------+
|                        Marker Type|                        Marker Name|
+-----------------------------------------------------------------------+
|                     Heat flux wall|                             y_plus|
|                                   |                            x_minus|
|                                   |                             x_plus|
|                                   |                            y_minus|
+-----------------------------------------------------------------------+

-------------------- Output Preprocessing ( Zone 0 ) --------------------

WARNING: SURFACE_PRESSURE_DROP can only be computed for at least 2 surfaces (outlet, inlet, ...)

Screen output fields: INNER_ITER, WALL_TIME, RMS_DENSITY, RMS_ENERGY, LIFT, DRAG
History output group(s): ITER, RMS_RES
Convergence field(s): RMS_DENSITY
Warning: No (valid) fields chosen for time convergence monitoring. Time convergence monitoring inactive.
Volume output fields: COORDINATES, SOLUTION, PRIMITIVE, GRID_VELOCITY

------------------- Geometry Preprocessing ( Zone 0 ) -------------------
Two dimensional problem.
16641 grid points.
16384 volume elements.
4 surface markers.
128 boundary elements in index 0 (Marker = y_minus).
128 boundary elements in index 1 (Marker = x_plus).
128 boundary elements in index 2 (Marker = y_plus).
128 boundary elements in index 3 (Marker = x_minus).
16384 quadrilaterals.
Setting point connectivity.
Renumbering points (Reverse Cuthill McKee Ordering).
Recomputing point connectivity.
Setting element connectivity.
Checking the numerical grid orientation.
All volume elements are correctly oriented.
All surface elements are correctly oriented.
Identifying edges and vertices.
Setting the control volume structure.
Area of the computational grid: 1.
Searching for the closest normal neighbors to the surfaces.
Storing a mapping from global to local point index.
Compute the surface curvature.
Max K: 181.019. Mean K: 2.8065. Standard deviation K: 22.3641.
Checking for periodicity.
Computing mesh quality statistics for the dual control volumes.
+--------------------------------------------------------------+
|           Mesh Quality Metric|        Minimum|        Maximum|
+--------------------------------------------------------------+
|    Orthogonality Angle (deg.)|             90|             90|
|     CV Face Area Aspect Ratio|              1|              2|
|           CV Sub-Volume Ratio|              1|              1|
+--------------------------------------------------------------+
Finding max control volume width.
Wetted area = 4 m.
Area projection in the x-plane = 1 m, y-plane = 1 m.
Max. coordinate in the x-direction = 1 m, y-direction = 1 m.
Min. coordinate in the x-direction = 0 m, y-direction = 0 m.
Computing wall distances.

-------------------- Solver Preprocessing ( Zone 0 ) --------------------
Viscous flow: Computing pressure using the ideal gas law
based on the free-stream temperature and a density computed
from the Reynolds number.
Force coefficients computed using MACH_MOTION.

-- Models:
+------------------------------------------------------------------------------+
|          Viscosity Model|        Conductivity Model|              Fluid Model|
+------------------------------------------------------------------------------+
|               SUTHERLAND|          CONSTANT_PRANDTL|             STANDARD_AIR|
+------------------------------------------------------------------------------+
-- Fluid properties:
+------------------------------------------------------------------------------+
|                  Name|    Dim. value|    Ref. value|      Unit|Non-dim. value|
+------------------------------------------------------------------------------+
|        Ref. Viscosity|     1.716e-05|             1|   N.s/m^2|     1.716e-05|
|      Sutherland Temp.|        273.15|             1|         K|        273.15|
|     Sutherland Const.|         110.4|             1|         K|         110.4|
+------------------------------------------------------------------------------+
|        Prandtl (Lam.)|             -|             -|         -|          0.72|
|       Prandtl (Turb.)|             -|             -|         -|           0.9|
+------------------------------------------------------------------------------+
|          Gas Constant|       287.058|             1|  N.m/kg.K|       287.058|
|      Spec. Heat Ratio|             -|             -|         -|           1.4|
+------------------------------------------------------------------------------+
-- Initial and free-stream conditions:
+------------------------------------------------------------------------------+
|                  Name|    Dim. value|    Ref. value|      Unit|Non-dim. value|
+------------------------------------------------------------------------------+
|       Static Pressure|       43.4923|             1|        Pa|       43.4923|
|               Density|   0.000525805|             1|    kg/m^3|   0.000525805|
|           Temperature|        288.15|             1|         K|        288.15|
|          Total Energy|        206934|             1|   m^2/s^2|        206934|
|            Velocity-X|       17.0149|             1|       m/s|       17.0149|
|            Velocity-Y|             0|             1|       m/s|             0|
|    Velocity Magnitude|       17.0149|             1|       m/s|       17.0149|
+------------------------------------------------------------------------------+
|             Viscosity|    1.7893e-05|             1|   N.s/m^2|    1.7893e-05|
|          Conductivity|             -|             1|   W/m^2.K|             -|
+------------------------------------------------------------------------------+
|           Mach Number|             -|             -|         -|          0.05|
|       Reynolds Number|             -|             -|         -|          1000|
+------------------------------------------------------------------------------+
Initialize Jacobian structure (Navier-Stokes). MG level: 0.

------------------- Numerics Preprocessing ( Zone 0 ) -------------------

----------------- Integration Preprocessing ( Zone 0 ) ------------------

------------------- Iteration Preprocessing ( Zone 0 ) ------------------
Euler/Navier-Stokes/RANS fluid iteration.
Setting dynamic mesh structure for zone 1.

 Setting the moving wall velocities.
 Storing grid velocity for marker: y_plus.
 Translational velocity: (33.179, 0, 0) m/s.
 Angular velocity: (0, 0, 0) rad/s about origin: (0, 0, 0).

------------------------------ Begin Solver -----------------------------

Simulation Run using the Single-zone Driver
 Storing grid velocity for marker: y_plus.
 Translational velocity: (33.179, 0, 0) m/s.
 Angular velocity: (0, 0, 0) rad/s about origin: (0, 0, 0).
WARNING: SU2 was not compiled for an AVX-capable architecture. Performance could be better,
         see https://su2code.github.io/docs_v7/Build-SU2-Linux-MacOS/#compiler-optimizations
AMGX version 2.2.0.132-opensource
Built on Apr 13 2026, 17:37:14
Compiled with CUDA Runtime 11.8, using CUDA driver 12.2
+-----------------------------------------------------------------------------+
|  Inner_Iter|   Time(sec)|    rms[Rho]|   rms[RhoE]|          CL|          CD|
+-----------------------------------------------------------------------------+
|           0|  7.0569e-01|   -5.062919|    0.398955|   -0.382065|   30.596821|
|           1|  5.3799e-01|   -5.387589|    0.076576|   -0.241942|   32.364366|
|           2|  4.6426e-01|   -5.500042|   -0.034505|   -0.098818|   26.290268|
|           3|  4.4293e-01|   -5.579503|   -0.116687|   -0.021256|   21.445879|
|           4|  4.3222e-01|   -5.735040|   -0.273634|    0.002098|   19.660621|
|           5|  4.2449e-01|   -5.812314|   -0.350695|    0.002725|   19.546124|
|           6|  4.1702e-01|   -5.846138|   -0.384213|    0.000052|   19.768697|
|           7|  4.0897e-01|   -5.872869|   -0.410913|   -0.000680|   19.866480|
|           8|  4.0369e-01|   -5.899733|   -0.437854|   -0.000199|   19.857903|
|           9|  4.0468e-01|   -5.935835|   -0.474039|    0.000388|   19.828659|
|          10|  3.9904e-01|   -5.992039|   -0.530353|    0.000834|   19.805031|
|          11|  3.9715e-01|   -6.083656|   -0.622141|    0.001258|   19.775922|
|          12|  3.9633e-01|   -6.235889|   -0.774592|    0.001733|   19.723769|
|          13|  3.9743e-01|   -6.497467|   -1.035948|    0.002259|   19.630028|
|          14|  3.9711e-01|   -6.704666|   -1.238895|    0.002860|   19.469580|
|          15|  3.9633e-01|   -6.411316|   -0.947632|    0.003558|   19.206978|
|          16|  3.9509e-01|   -6.216812|   -0.754128|    0.004367|   18.796548|
|          17|  3.9528e-01|   -6.108517|   -0.646191|    0.005343|   18.185043|
|          18|  3.9502e-01|   -6.046814|   -0.584633|    0.006554|   17.316330|
|          19|  3.9254e-01|   -6.010873|   -0.548753|    0.008057|   16.138140|
|          20|  3.9338e-01|   -5.987605|   -0.525523|    0.009888|   14.610347|
|          21|  3.9444e-01|   -5.968647|   -0.506613|    0.012045|   12.713387|
|          22|  3.9529e-01|   -5.949953|   -0.487984|    0.014481|   10.455097|
|          23|  3.9518e-01|   -5.931220|   -0.469317|    0.017110|    7.874287|
|          24|  3.9380e-01|   -5.914408|   -0.452548|    0.019803|    5.039870|
|          25|  3.9367e-01|   -5.902096|   -0.440241|    0.022406|    2.045297|
|          26|  3.9428e-01|   -5.896430|   -0.434544|    0.024754|   -1.000922|
|          27|  3.9532e-01|   -5.898743|   -0.436809|    0.026691|   -3.986898|
|          28|  3.9651e-01|   -5.909550|   -0.447574|    0.028085|   -6.809057|
|          29|  3.9540e-01|   -5.928701|   -0.466713|    0.028850|   -9.381799|
|          30|  3.9612e-01|   -5.955618|   -0.493659|    0.028950|  -11.643725|
|          31|  3.9785e-01|   -5.989613|   -0.527728|    0.028406|  -13.559849|
|          32|  3.9827e-01|   -6.030313|   -0.568539|    0.027288|  -15.120109|
|          33|  3.9807e-01|   -6.078154|   -0.616516|    0.025702|  -16.335007|
|          34|  3.9729e-01|   -6.134884|   -0.673404|    0.023771|  -17.229554|
|          35|  3.9679e-01|   -6.204096|   -0.742800|    0.021614|  -17.836651|
|          36|  3.9709e-01|   -6.292041|   -0.830973|    0.019333|  -18.190939|
|          37|  3.9718e-01|   -6.409549|   -0.948769|    0.016994|  -18.323808|
|          38|  3.9782e-01|   -6.576699|   -1.116203|    0.014642|  -18.260004|
|          39|  3.9738e-01|   -6.822934|   -1.361476|    0.012299|  -18.015955|
|          40|  3.9786e-01|   -6.940649|   -1.472507|    0.009934|  -17.599757|
|          41|  3.9809e-01|   -6.684594|   -1.218846|    0.007573|  -17.012458|
|          42|  3.9799e-01|   -6.483376|   -1.019408|    0.005220|  -16.250213|
|          43|  3.9854e-01|   -6.347453|   -0.884316|    0.002869|  -15.306989|
|          44|  3.9879e-01|   -6.250318|   -0.787651|    0.000510|  -14.177406|
|          45|  3.9925e-01|   -6.178032|   -0.715668|   -0.001864|  -12.859406|
|          46|  3.9944e-01|   -6.122975|   -0.660820|   -0.004251|  -11.356473|
|          47|  3.9950e-01|   -6.080635|   -0.618625|   -0.006632|   -9.679201|
|          48|  3.9894e-01|   -6.048216|   -0.586302|   -0.008976|   -7.846091|
|          49|  3.9853e-01|   -6.023984|   -0.562123|   -0.011241|   -5.883505|
|          50|  3.9842e-01|   -6.006900|   -0.545054|   -0.013372|   -3.824796|
|          51|  3.9895e-01|   -5.996393|   -0.534533|   -0.015312|   -1.708740|
|          52|  3.9912e-01|   -5.992207|   -0.530310|   -0.017003|    0.422546|
|          53|  3.9977e-01|   -5.994282|   -0.532341|   -0.018391|    2.525937|
|          54|  4.0027e-01|   -6.002698|   -0.540717|   -0.019430|    4.559600|
|          55|  3.9978e-01|   -6.017644|   -0.555642|   -0.020085|    6.485037|
|          56|  3.9950e-01|   -6.039436|   -0.577444|   -0.020335|    8.268655|
|          57|  4.0017e-01|   -6.068570|   -0.606630|   -0.020173|    9.882773|
|          58|  4.0048e-01|   -6.105818|   -0.643980|   -0.019605|   11.306054|
|          59|  4.0071e-01|   -6.152390|   -0.690711|   -0.018648|   12.523386|
|          60|  4.0075e-01|   -6.210199|   -0.748744|   -0.017330|   13.525354|
|          61|  4.0049e-01|   -6.282329|   -0.821182|   -0.015683|   14.307410|
|          62|  4.0072e-01|   -6.373978|   -0.913248|   -0.013742|   14.868900|
|          63|  4.0133e-01|   -6.494492|   -1.034359|   -0.011538|   15.212075|
|          64|  4.0160e-01|   -6.662106|   -1.202879|   -0.009112|   15.341206|
|          65|  4.0162e-01|   -6.907813|   -1.449533|   -0.006502|   15.261893|
|          66|  4.0222e-01|   -7.072861|   -1.608150|   -0.003760|   14.980694|
|          67|  4.0204e-01|   -6.823365|   -1.357657|   -0.000933|   14.504997|
|          68|  4.0228e-01|   -6.612083|   -1.147950|    0.001941|   13.843061|
|          69|  4.0256e-01|   -6.468792|   -1.005545|    0.004820|   13.004208|
|          70|  4.0295e-01|   -6.365398|   -0.902685|    0.007670|   11.999173|
|          71|  4.0314e-01|   -6.287387|   -0.825022|    0.010459|   10.840507|
|          72|  4.0291e-01|   -6.227118|   -0.764989|    0.013167|    9.542953|
|          73|  4.0270e-01|   -6.180210|   -0.718235|    0.015776|    8.123717|
|          74|  4.0263e-01|   -6.143974|   -0.682093|    0.018261|    6.602562|
|          75|  4.0286e-01|   -6.116690|   -0.654856|    0.020594|    5.001683|
|          76|  4.0317e-01|   -6.097234|   -0.635410|    0.022744|    3.345371|
|          77|  4.0356e-01|   -6.084873|   -0.623031|    0.024678|    1.659460|
|          78|  4.0386e-01|   -6.079149|   -0.617274|    0.026364|   -0.029362|
|          79|  4.0404e-01|   -6.079814|   -0.617898|    0.027772|   -1.694335|
|          80|  4.0433e-01|   -6.086792|   -0.624840|    0.028875|   -3.309419|
|          81|  4.0448e-01|   -6.100169|   -0.638196|    0.029648|   -4.850024|
|          82|  4.0456e-01|   -6.120207|   -0.658235|    0.030072|   -6.293621|
|          83|  4.0453e-01|   -6.147373|   -0.685435|    0.030135|   -7.620208|
|          84|  4.0478e-01|   -6.182415|   -0.720552|    0.029832|   -8.812595|
|          85|  4.0509e-01|   -6.226478|   -0.764738|    0.029167|   -9.856536|
|          86|  4.0499e-01|   -6.281315|   -0.819758|    0.028148|  -10.740713|
|          87|  4.0492e-01|   -6.349678|   -0.888378|    0.026783|  -11.456614|
|          88|  4.0460e-01|   -6.436075|   -0.975134|    0.025091|  -11.998345|
|          89|  4.0482e-01|   -6.548403|   -1.087980|    0.023107|  -12.362405|
|          90|  4.0479e-01|   -6.701630|   -1.241999|    0.020862|  -12.547483|
|          91|  4.0468e-01|   -6.923168|   -1.464640|    0.018375|  -12.554263|
|          92|  4.0466e-01|   -7.154160|   -1.692326|    0.015678|  -12.385333|
|          93|  4.0514e-01|   -6.971829|   -1.506021|    0.012793|  -12.045178|
|          94|  4.0538e-01|   -6.743108|   -1.278747|    0.009779|  -11.540265|
|          95|  4.0564e-01|   -6.587374|   -1.123948|    0.006701|  -10.879070|
|          96|  4.0547e-01|   -6.476154|   -1.013289|    0.003621|  -10.072123|
|          97|  4.0576e-01|   -6.392752|   -0.930249|    0.000600|   -9.132004|
|          98|  4.0613e-01|   -6.328462|   -0.866202|   -0.002314|   -8.073288|
|          99|  4.0616e-01|   -6.278378|   -0.816278|   -0.005084|   -6.912399|
|         100|  4.0602e-01|   -6.239528|   -0.777529|   -0.007685|   -5.667391|
|         101|  4.0593e-01|   -6.210028|   -0.748082|   -0.010095|   -4.357649|
|         102|  4.0600e-01|   -6.188641|   -0.726714|   -0.012294|   -3.003525|
|         103|  4.0570e-01|   -6.174553|   -0.712619|   -0.014257|   -1.625932|
|         104|  4.0593e-01|   -6.167241|   -0.705285|   -0.015960|   -0.245908|
|         105|  4.0610e-01|   -6.166401|   -0.704416|   -0.017377|    1.115829|
|         106|  4.0646e-01|   -6.171912|   -0.709898|   -0.018481|    2.439296|
|         107|  4.0676e-01|   -6.183817|   -0.721783|   -0.019252|    3.705632|
|         108|  4.0672e-01|   -6.202336|   -0.740299|   -0.019671|    4.897409|
|         109|  4.0664e-01|   -6.227895|   -0.765878|   -0.019726|    5.998881|
|         110|  4.0654e-01|   -6.261186|   -0.799217|   -0.019411|    6.996156|
|         111|  4.0683e-01|   -6.303272|   -0.841389|   -0.018725|    7.877285|
|         112|  4.0719e-01|   -6.355784|   -0.894029|   -0.017676|    8.632306|
|         113|  4.0736e-01|   -6.421258|   -0.959689|   -0.016275|    9.253227|
|         114|  4.0769e-01|   -6.503827|   -1.042518|   -0.014542|    9.733988|
|         115|  4.0773e-01|   -6.610663|   -1.149737|   -0.012499|   10.070400|
|         116|  4.0742e-01|   -6.755382|   -1.295059|   -0.010170|   10.260103|
|         117|  4.0755e-01|   -6.965302|   -1.506030|   -0.007596|   10.302520|
|         118|  4.0771e-01|   -7.240343|   -1.780976|   -0.004817|   10.198877|
|         119|  4.0807e-01|   -7.127251|   -1.662810|   -0.001891|    9.952247|
|         120|  4.0824e-01|   -6.873384|   -1.409649|    0.001134|    9.567591|
|         121|  4.0844e-01|   -6.703197|   -1.240150|    0.004206|    9.051742|
|         122|  4.0817e-01|   -6.583962|   -1.121341|    0.007275|    8.413372|
|         123|  4.0806e-01|   -6.495501|   -1.033158|    0.010297|    7.662921|
|         124|  4.0817e-01|   -6.427678|   -0.965522|    0.013236|    6.812497|
|         125|  4.0841e-01|   -6.374929|   -0.912899|    0.016049|    5.875709|
|         126|  4.0874e-01|   -6.333946|   -0.871996|    0.018702|    4.867458|
|         127|  4.0905e-01|   -6.302648|   -0.840743|    0.021167|    3.803671|
|         128|  4.0920e-01|   -6.279678|   -0.817791|    0.023414|    2.701002|
|         129|  4.0914e-01|   -6.264140|   -0.802251|    0.025417|    1.576496|
|         130|  4.0939e-01|   -6.255454|   -0.793551|    0.027148|    0.447251|
|         131|  4.0935e-01|   -6.253271|   -0.791347|    0.028582|   -0.669917|
|         132|  4.0963e-01|   -6.257433|   -0.795489|    0.029700|   -1.758786|
|         133|  4.0969e-01|   -6.267950|   -0.805992|    0.030481|   -2.804002|
|         134|  4.0986e-01|   -6.285010|   -0.823049|    0.030912|   -3.791312|
|         135|  4.0962e-01|   -6.308997|   -0.847051|    0.030983|   -4.707734|
|         136|  4.0961e-01|   -6.340550|   -0.878642|    0.030690|   -5.541695|
|         137|  4.0980e-01|   -6.380659|   -0.918816|    0.030032|   -6.283112|
|         138|  4.1006e-01|   -6.430832|   -0.969088|    0.029013|   -6.923434|
|         139|  4.1019e-01|   -6.493408|   -1.031806|    0.027640|   -7.455662|
|         140|  4.1037e-01|   -6.572166|   -1.110767|    0.025933|   -7.874344|
|         141|  4.1057e-01|   -6.673616|   -1.212511|    0.023916|   -8.175558|
|         142|  4.1042e-01|   -6.810071|   -1.349426|    0.021620|   -8.356904|
|         143|  4.1062e-01|   -7.007519|   -1.547672|    0.019075|   -8.417491|
|         144|  4.1088e-01|   -7.304109|   -1.844848|    0.016317|   -8.357924|
|         145|  4.1111e-01|   -7.302970|   -1.837971|    0.013379|   -8.180340|
|         146|  4.1122e-01|   -7.013593|   -1.549492|    0.010309|   -7.888435|
|         147|  4.1117e-01|   -6.823622|   -1.360352|    0.007156|   -7.487483|
|         148|  4.1090e-01|   -6.694260|   -1.231450|    0.003977|   -6.984311|
|         149|  4.1093e-01|   -6.599754|   -1.137228|    0.000832|   -6.387250|
|         150|  4.1114e-01|   -6.527891|   -1.065553|   -0.002219|   -5.706040|
|         151|  4.1148e-01|   -6.472209|   -1.009997|   -0.005119|   -4.951695|
|         152|  4.1153e-01|   -6.428955|   -0.966826|   -0.007821|   -4.136318|
|         153|  4.1166e-01|   -6.395799|   -0.933722|   -0.010288|   -3.272875|
|         154|  4.1167e-01|   -6.371236|   -0.909186|   -0.012493|   -2.374942|
|         155|  4.1143e-01|   -6.354275|   -0.892233|   -0.014414|   -1.456431|
|         156|  4.1160e-01|   -6.344270|   -0.882225|   -0.016033|   -0.531320|
|         157|  4.1180e-01|   -6.340826|   -0.878771|   -0.017336|    0.386612|
|         158|  4.1208e-01|   -6.343750|   -0.881681|   -0.018307|    1.284021|
|         159|  4.1217e-01|   -6.353022|   -0.890942|   -0.018933|    2.148214|
|         160|  4.1213e-01|   -6.368802|   -0.906718|   -0.019205|    2.967327|
|         161|  4.1209e-01|   -6.391447|   -0.929368|   -0.019117|    3.730480|
|         162|  4.1196e-01|   -6.421559|   -0.959499|   -0.018666|    4.427884|
|         163|  4.1205e-01|   -6.460077|   -0.998052|   -0.017856|    5.050931|
|         164|  4.1212e-01|   -6.508433|   -1.046464|   -0.016696|    5.592243|
|         165|  4.1219e-01|   -6.568843|   -1.106957|   -0.015201|    6.045709|
|         166|  4.1235e-01|   -6.644874|   -1.183104|   -0.013391|    6.406499|
|         167|  4.1235e-01|   -6.742643|   -1.281042|   -0.011291|    6.671074|
|         168|  4.1220e-01|   -6.873740|   -1.412406|   -0.008928|    6.837184|
|         169|  4.1224e-01|   -7.063424|   -1.602589|   -0.006337|    6.903875|
|         170|  4.1237e-01|   -7.369322|   -1.909594|   -0.003559|    6.871494|
|         171|  4.1254e-01|   -7.487649|   -2.024929|   -0.000641|    6.741715|
|         172|  4.1265e-01|   -7.151032|   -1.688033|    0.002370|    6.517551|
|         173|  4.1259e-01|   -6.940020|   -1.477434|    0.005425|    6.203323|
|         174|  4.1248e-01|   -6.801147|   -1.338806|    0.008478|    5.804617|
|         175|  4.1238e-01|   -6.701297|   -1.239113|    0.011482|    5.328214|
|         176|  4.1253e-01|   -6.625981|   -1.163904|    0.014394|    4.782004|
|         177|  4.1270e-01|   -6.567840|   -1.105836|    0.017173|    4.174864|
|         178|  4.1277e-01|   -6.522697|   -1.060742|    0.019782|    3.516515|
|         179|  4.1287e-01|   -6.487997|   -1.026072|    0.022185|    2.817359|
|         180|  4.1279e-01|   -6.462100|   -1.000191|    0.024350|    2.088287|
|         181|  4.1256e-01|   -6.443930|   -0.982026|    0.026246|    1.340489|
|         182|  4.1260e-01|   -6.432781|   -0.970875|    0.027850|    0.585246|
|         183|  4.1280e-01|   -6.428217|   -0.966305|    0.029137|   -0.166266|
|         184|  4.1303e-01|   -6.430008|   -0.968090|    0.030090|   -0.903164|
|         185|  4.1312e-01|   -6.438108|   -0.976187|    0.030692|   -1.615030|
|         186|  4.1304e-01|   -6.452647|   -0.990728|    0.030933|   -2.292062|
|         187|  4.1293e-01|   -6.473949|   -1.012041|    0.030808|   -2.925200|
|         188|  4.1287e-01|   -6.502572|   -1.040687|    0.030316|   -3.506229|
|         189|  4.1303e-01|   -6.539394|   -1.077549|    0.029462|   -4.027858|
|         190|  4.1321e-01|   -6.585754|   -1.123967|    0.028256|   -4.483781|
|         191|  4.1328e-01|   -6.643710|   -1.182008|    0.026716|   -4.868715|
|         192|  4.1355e-01|   -6.716554|   -1.254972|    0.024864|   -5.178435|
|         193|  4.1352e-01|   -6.809876|   -1.348471|    0.022727|   -5.409783|
|         194|  4.1347e-01|   -6.934140|   -1.473016|    0.020337|   -5.560687|
|         195|  4.1365e-01|   -7.112065|   -1.651456|    0.017730|   -5.630161|
|         196|  4.1374e-01|   -7.403132|   -1.943660|    0.014943|   -5.618306|
|         197|  4.1383e-01|   -7.685223|   -2.221509|    0.012019|   -5.526308|
|         198|  4.1376e-01|   -7.302704|   -1.838621|    0.008997|   -5.356439|
|         199|  4.1358e-01|   -7.063278|   -1.600077|    0.005924|   -5.112051|
|         200|  4.1355e-01|   -6.912141|   -1.449353|    0.002847|   -4.797543|
|         201|  4.1358e-01|   -6.805571|   -1.343016|   -0.000187|   -4.418305|
|         202|  4.1377e-01|   -6.725991|   -1.263585|   -0.003126|   -3.980647|
|         203|  4.1385e-01|   -6.664868|   -1.202563|   -0.005921|   -3.491709|
|         204|  4.1400e-01|   -6.617484|   -1.155247|   -0.008521|   -2.959342|
|         205|  4.1413e-01|   -6.581000|   -1.118809|   -0.010881|   -2.391977|
|         206|  4.1396e-01|   -6.553612|   -1.091449|   -0.012964|   -1.798477|
|         207|  4.1398e-01|   -6.534140|   -1.071993|   -0.014741|   -1.187975|
|         208|  4.1409e-01|   -6.521810|   -1.059671|   -0.016191|   -0.569709|
|         209|  4.1425e-01|   -6.516138|   -1.054000|   -0.017301|    0.047140|
|         210|  4.1429e-01|   -6.516858|   -1.054718|   -0.018062|    0.653600|
|         211|  4.1431e-01|   -6.523896|   -1.061752|   -0.018470|    1.241049|
|         212|  4.1430e-01|   -6.537353|   -1.075207|   -0.018522|    1.801337|
|         213|  4.1426e-01|   -6.557526|   -1.095381|   -0.018220|    2.326895|
|         214|  4.1435e-01|   -6.584945|   -1.122804|   -0.017569|    2.810817|
|         215|  4.1443e-01|   -6.620443|   -1.158313|   -0.016579|    3.246938|
|         216|  4.1459e-01|   -6.665295|   -1.203183|   -0.015263|    3.629890|
|         217|  4.1472e-01|   -6.721462|   -1.259375|   -0.013637|    3.955143|
|         218|  4.1481e-01|   -6.792059|   -1.330009|   -0.011725|    4.219037|
|         219|  4.1467e-01|   -6.882348|   -1.420350|   -0.009552|    4.418808|
|         220|  4.1489e-01|   -7.002111|   -1.540188|   -0.007148|    4.552601|
|         221|  4.1491e-01|   -7.172489|   -1.710704|   -0.004548|    4.619481|
|         222|  4.1499e-01|   -7.451756|   -1.990364|   -0.001789|    4.619435|
|         223|  4.1504e-01|   -7.873192|   -2.413092|    0.001087|    4.553379|
|         224|  4.1513e-01|   -7.448118|   -1.986068|    0.004035|    4.423154|
|         225|  4.1505e-01|   -7.180260|   -1.718203|    0.007011|    4.231498|
|         226|  4.1505e-01|   -7.018505|   -1.556497|    0.009970|    3.982002|
|         227|  4.1503e-01|   -6.906449|   -1.444483|    0.012868|    3.679058|
|         228|  4.1517e-01|   -6.823471|   -1.361537|    0.015663|    3.327792|
|         229|  4.1524e-01|   -6.759986|   -1.298077|    0.018313|    2.933980|
|         230|  4.1537e-01|   -6.710818|   -1.248926|    0.020781|    2.503960|
|         231|  4.1544e-01|   -6.672894|   -1.211014|    0.023029|    2.044522|
|         232|  4.1533e-01|   -6.644277|   -1.182405|    0.025026|    1.562795|
|         233|  4.1544e-01|   -6.623704|   -1.161835|    0.026744|    1.066130|
|         234|  4.1549e-01|   -6.610345|   -1.148477|    0.028155|    0.561973|
|         235|  4.1561e-01|   -6.603674|   -1.141807|    0.029240|    0.057752|
|         236|  4.1564e-01|   -6.603393|   -1.141527|    0.029983|   -0.439247|
|         237|  4.1569e-01|   -6.609398|   -1.147536|    0.030372|   -0.921983|
|         238|  4.1555e-01|   -6.621764|   -1.159910|    0.030402|   -1.383762|
|         239|  4.1552e-01|   -6.640756|   -1.178916|    0.030072|   -1.818326|
|         240|  4.1561e-01|   -6.666861|   -1.205044|    0.029388|   -2.219929|
|         241|  4.1577e-01|   -6.700858|   -1.239074|    0.028360|   -2.583400|
|         242|  4.1587e-01|   -6.743937|   -1.282200|    0.027004|   -2.904204|
|         243|  4.1603e-01|   -6.797920|   -1.336250|    0.025342|   -3.178476|
|         244|  4.1603e-01|   -6.865681|   -1.404107|    0.023399|   -3.403064|
|         245|  4.1586e-01|   -6.952021|   -1.490588|    0.021203|   -3.575548|
|         246|  4.1588e-01|   -7.065712|   -1.604506|    0.018788|   -3.694259|
|         247|  4.1602e-01|   -7.225286|   -1.764504|    0.016190|   -3.758291|
|         248|  4.1617e-01|   -7.480771|   -2.021059|    0.013445|   -3.767501|
|         249|  4.1625e-01|   -7.979533|   -2.522286|    0.010594|   -3.722505|
|         250|  4.1619e-01|   -7.616370|   -2.151865|    0.007678|   -3.624669|
|         251|  4.1611e-01|   -7.307448|   -1.844069|    0.004738|   -3.476097|
|         252|  4.1602e-01|   -7.130995|   -1.668076|    0.001818|   -3.279597|
|         253|  4.1612e-01|   -7.011473|   -1.548795|   -0.001038|   -3.038644|
|         254|  4.1624e-01|   -6.923929|   -1.461397|   -0.003790|   -2.757328|
|         255|  4.1630e-01|   -6.857317|   -1.394882|   -0.006396|   -2.440285|
|         256|  4.1644e-01|   -6.805837|   -1.343469|   -0.008814|   -2.092627|
|         257|  4.1648e-01|   -6.766100|   -1.303778|   -0.011006|   -1.719859|
|         258|  4.1642e-01|   -6.735991|   -1.273702|   -0.012933|   -1.327784|
|         259|  4.1643e-01|   -6.714138|   -1.251871|   -0.014563|   -0.922409|
|         260|  4.1650e-01|   -6.699641|   -1.237388|   -0.015870|   -0.509844|
|         261|  4.1662e-01|   -6.691924|   -1.229679|   -0.016832|   -0.096203|
|         262|  4.1662e-01|   -6.690652|   -1.228411|   -0.017440|    0.312490|
|         263|  4.1655e-01|   -6.695692|   -1.233450|   -0.017689|    0.710399|
|         264|  4.1650e-01|   -6.707091|   -1.244848|   -0.017580|    1.091957|
|         265|  4.1650e-01|   -6.725088|   -1.262843|   -0.017120|    1.451943|
|         266|  4.1656e-01|   -6.750142|   -1.287893|   -0.016320|    1.785549|
|         267|  4.1661e-01|   -6.782991|   -1.320738|   -0.015196|    2.088435|
|         268|  4.1667e-01|   -6.824771|   -1.362512|   -0.013764|    2.356779|
|         269|  4.1681e-01|   -6.877216|   -1.414950|   -0.012048|    2.587311|
|         270|  4.1679e-01|   -6.943056|   -1.480777|   -0.010073|    2.777348|
|         271|  4.1675e-01|   -7.026808|   -1.564509|   -0.007865|    2.924814|
|         272|  4.1687e-01|   -7.136651|   -1.674314|   -0.005457|    3.028255|
|         273|  4.1691e-01|   -7.289615|   -1.827202|   -0.002883|    3.086856|
|         274|  4.1696e-01|   -7.530996|   -2.068420|   -0.000180|    3.100436|
|         275|  4.1687e-01|   -8.041909|   -2.579910|    0.002614|    3.069456|
|         276|  4.1691e-01|   -7.775911|   -2.315546|    0.005456|    2.995007|
|         277|  4.1700e-01|   -7.426099|   -1.964750|    0.008306|    2.878790|
|         278|  4.1714e-01|   -7.237453|   -1.775874|    0.011122|    2.723085|
|         279|  4.1720e-01|   -7.112136|   -1.650464|    0.013863|    2.530715|
|         280|  4.1720e-01|   -7.021147|   -1.559428|    0.016489|    2.304993|
|         281|  4.1714e-01|   -6.952193|   -1.490449|    0.018962|    2.049674|
|         282|  4.1711e-01|   -6.898964|   -1.437206|    0.021244|    1.768892|
|         283|  4.1720e-01|   -6.857827|   -1.396060|    0.023303|    1.467091|
|         284|  4.1727e-01|   -6.826531|   -1.364758|    0.025107|    1.148952|
|         285|  4.1738e-01|   -6.803622|   -1.341846|    0.026629|    0.819323|
|         286|  4.1752e-01|   -6.788145|   -1.326367|    0.027845|    0.483138|
|         287|  4.1742e-01|   -6.779484|   -1.317708|    0.028738|    0.145344|
|         288|  4.1742e-01|   -6.777273|   -1.315501|    0.029294|   -0.189173|
|         289|  4.1751e-01|   -6.781351|   -1.319587|    0.029506|   -0.515662|
|         290|  4.1764e-01|   -6.791738|   -1.329987|    0.029372|   -0.829570|
|         291|  4.1765e-01|   -6.808642|   -1.346910|    0.028896|   -1.126602|
|         292|  4.1770e-01|   -6.832482|   -1.370777|    0.028086|   -1.402780|
|         293|  4.1762e-01|   -6.863944|   -1.402277|    0.026957|   -1.654493|
|         294|  4.1760e-01|   -6.904086|   -1.442470|    0.025527|   -1.878532|
|         295|  4.1763e-01|   -6.954520|   -1.492974|    0.023820|   -2.072133|
|         296|  4.1776e-01|   -7.017759|   -1.556314|    0.021861|   -2.233006|
|         297|  4.1787e-01|   -7.097928|   -1.636630|    0.019682|   -2.359351|
|         298|  4.1798e-01|   -7.202354|   -1.741295|    0.017313|   -2.449883|
|         299|  4.1796e-01|   -7.345888|   -1.885266|    0.014790|   -2.503835|
|         300|  4.1784e-01|   -7.566180|   -2.106614|    0.012150|   -2.520968|
|         301|  4.1788e-01|   -8.012015|   -2.557600|    0.009430|   -2.501562|
|         302|  4.1796e-01|   -7.975099|   -2.509524|    0.006670|   -2.446412|
|         303|  4.1807e-01|   -7.559773|   -2.095803|    0.003909|   -2.356812|
|         304|  4.1808e-01|   -7.352634|   -1.889343|    0.001187|   -2.234536|
|         305|  4.1802e-01|   -7.218708|   -1.755746|   -0.001457|   -2.081805|
|         306|  4.1799e-01|   -7.122670|   -1.659899|   -0.003984|   -1.901257|
|         307|  4.1801e-01|   -7.050342|   -1.587694|   -0.006357|   -1.695901|
|         308|  4.1794e-01|   -6.994655|   -1.532092|   -0.008542|   -1.469068|
|         309|  4.1787e-01|   -6.951613|   -1.489109|   -0.010507|   -1.224359|
|         310|  4.1787e-01|   -6.918768|   -1.456306|   -0.012220|   -0.965586|
|         311|  4.1794e-01|   -6.894547|   -1.432115|   -0.013658|   -0.696710|
|         312|  4.1798e-01|   -6.877919|   -1.415509|   -0.014796|   -0.421781|
|         313|  4.1805e-01|   -6.868216|   -1.405820|   -0.015616|   -0.144872|
|         314|  4.1808e-01|   -6.865035|   -1.402647|   -0.016106|    0.129982|
|         315|  4.1804e-01|   -6.868183|   -1.405797|   -0.016257|    0.398843|
|         316|  4.1806e-01|   -6.877654|   -1.415265|   -0.016068|    0.657928|
|         317|  4.1813e-01|   -6.893629|   -1.431234|   -0.015543|    0.903660|
|         318|  4.1816e-01|   -6.916498|   -1.454092|   -0.014694|    1.132720|
|         319|  4.1813e-01|   -6.946913|   -1.484490|   -0.013536|    1.342083|
|         320|  4.1807e-01|   -6.985879|   -1.523433|   -0.012090|    1.529057|
|         321|  4.1808e-01|   -7.034933|   -1.572453|   -0.010380|    1.691319|
|         322|  4.1801e-01|   -7.096462|   -1.633932|   -0.008434|    1.826930|
|         323|  4.1805e-01|   -7.174353|   -1.711748|   -0.006281|    1.934362|
|         324|  4.1812e-01|   -7.275453|   -1.812725|   -0.003955|    2.012512|
|         325|  4.1817e-01|   -7.413406|   -1.950458|   -0.001488|    2.060706|
|         326|  4.1822e-01|   -7.621918|   -2.158492|    0.001083|    2.078707|
|         327|  4.1814e-01|   -8.030725|   -2.565854|    0.003720|    2.066712|
|         328|  4.1824e-01|   -8.165305|   -2.709493|    0.006387|    2.025345|
|         329|  4.1834e-01|   -7.682159|   -2.222013|    0.009044|    1.955646|
|         330|  4.1845e-01|   -7.460051|   -1.999130|    0.011653|    1.859043|
|         331|  4.1848e-01|   -7.319664|   -1.858438|    0.014177|    1.737334|
|         332|  4.1847e-01|   -7.219950|   -1.758569|    0.016580|    1.592651|
|         333|  4.1838e-01|   -7.145185|   -1.683711|    0.018827|    1.427424|
|         334|  4.1834e-01|   -7.087709|   -1.626177|    0.020883|    1.244345|
|         335|  4.1843e-01|   -7.043249|   -1.581679|    0.022720|    1.046322|
|         336|  4.1852e-01|   -7.009211|   -1.547616|    0.024309|    0.836434|
|         337|  4.1854e-01|   -6.983936|   -1.522325|    0.025627|    0.617883|
|         338|  4.1853e-01|   -6.966336|   -1.504716|    0.026656|    0.393945|
|         339|  4.1851e-01|   -6.955703|   -1.494081|    0.027380|    0.167920|
|         340|  4.1855e-01|   -6.951601|   -1.489983|    0.027791|   -0.056913|
|         341|  4.1861e-01|   -6.953811|   -1.492202|    0.027884|   -0.277347|
|         342|  4.1864e-01|   -6.962298|   -1.500707|    0.027660|   -0.490291|
|         343|  4.1871e-01|   -6.977215|   -1.515648|    0.027123|   -0.692809|
|         344|  4.1869e-01|   -6.998914|   -1.537382|    0.026285|   -0.882165|
|         345|  4.1866e-01|   -7.027997|   -1.566512|    0.025158|   -1.055851|
|         346|  4.1873e-01|   -7.065399|   -1.603978|    0.023763|   -1.211624|
|         347|  4.1882e-01|   -7.112542|   -1.651209|    0.022121|   -1.347530|
|         348|  4.1879e-01|   -7.171628|   -1.710418|    0.020256|   -1.461928|
|         349|  4.1878e-01|   -7.246201|   -1.785173|    0.018199|   -1.553505|
|         350|  4.1870e-01|   -7.342396|   -1.881655|    0.015978|   -1.621295|
|         351|  4.1874e-01|   -7.472114|   -2.011887|    0.013627|   -1.664680|
|         352|  4.1884e-01|   -7.663349|   -2.204271|    0.011180|   -1.683400|
|         353|  4.1891e-01|   -8.012634|   -2.558105|    0.008673|   -1.677549|
|         354|  4.1896e-01|   -8.422770|   -2.960597|    0.006142|   -1.647569|
|         355|  4.1896e-01|   -7.826623|   -2.361494|    0.003623|   -1.594243|
|         356|  4.1888e-01|   -7.579543|   -2.115555|    0.001153|   -1.518677|
|         357|  4.1883e-01|   -7.428721|   -1.965258|   -0.001233|   -1.422282|
|         358|  4.1886e-01|   -7.323194|   -1.860024|   -0.003500|   -1.306751|
|         359|  4.1888e-01|   -7.244656|   -1.781671|   -0.005616|   -1.174031|
|         360|  4.1895e-01|   -7.184487|   -1.721626|   -0.007551|   -1.026289|
|         361|  4.1893e-01|   -7.137972|   -1.675197|   -0.009276|   -0.865882|
|         362|  4.1898e-01|   -7.102281|   -1.639570|   -0.010767|   -0.695315|
|         363|  4.1903e-01|   -7.075623|   -1.612956|   -0.012002|   -0.517203|
|         364|  4.1910e-01|   -7.056823|   -1.594188|   -0.012964|   -0.334232|
|         365|  4.1908e-01|   -7.045118|   -1.582503|   -0.013639|   -0.149118|
|         366|  4.1902e-01|   -7.040030|   -1.577427|   -0.014018|    0.035436|
|         367|  4.1903e-01|   -7.041305|   -1.578707|   -0.014096|    0.216778|
|         368|  4.1906e-01|   -7.048885|   -1.586283|   -0.013873|    0.392345|
|         369|  4.1909e-01|   -7.062894|   -1.600280|   -0.013352|    0.559698|
|         370|  4.1909e-01|   -7.083657|   -1.621023|   -0.012541|    0.716559|
|         371|  4.1901e-01|   -7.111742|   -1.649077|   -0.011455|    0.860834|
|         372|  4.1909e-01|   -7.148038|   -1.685329|   -0.010110|    0.990648|
|         373|  4.1915e-01|   -7.193902|   -1.731131|   -0.008528|    1.104361|
|         374|  4.1917e-01|   -7.251428|   -1.788567|   -0.006734|    1.200591|
|         375|  4.1910e-01|   -7.323968|   -1.860975|   -0.004755|    1.278226|
|         376|  4.1908e-01|   -7.417274|   -1.954073|   -0.002622|    1.336440|
|         377|  4.1910e-01|   -7.542341|   -2.078783|   -0.000369|    1.374694|
|         378|  4.1912e-01|   -7.724405|   -2.260115|    0.001972|    1.392748|
|         379|  4.1920e-01|   -8.046363|   -2.579920|    0.004366|    1.390650|
|         380|  4.1918e-01|   -8.668467|   -3.224344|    0.006777|    1.368741|
|         381|  4.1928e-01|   -7.955713|   -2.497861|    0.009170|    1.327640|
|         382|  4.1935e-01|   -7.688703|   -2.228885|    0.011509|    1.268231|
|         383|  4.1936e-01|   -7.530301|   -2.069798|    0.013762|    1.191649|
|         384|  4.1933e-01|   -7.420696|   -1.959853|    0.015894|    1.099257|
|         385|  4.1938e-01|   -7.339535|   -1.878494|    0.017877|    0.992625|
|         386|  4.1942e-01|   -7.277475|   -1.816309|    0.019680|    0.873502|
|         387|  4.1947e-01|   -7.229480|   -1.768231|    0.021279|    0.743793|
|         388|  4.1948e-01|   -7.192558|   -1.731253|    0.022652|    0.605521|
|         389|  4.1939e-01|   -7.164818|   -1.703476|    0.023780|    0.460804|
|         390|  4.1945e-01|   -7.145028|   -1.683663|    0.024648|    0.311819|
|         391|  4.1946e-01|   -7.132379|   -1.671004|    0.025245|    0.160769|
|         392|  4.1939e-01|   -7.126363|   -1.664987|    0.025564|    0.009853|
|         393|  4.1933e-01|   -7.126697|   -1.665331|    0.025603|   -0.138767|
|         394|  4.1942e-01|   -7.133295|   -1.671948|    0.025362|   -0.282995|
|         395|  4.1945e-01|   -7.146251|   -1.684936|    0.024847|   -0.420830|
|         396|  4.1947e-01|   -7.165854|   -1.704585|    0.024067|   -0.550397|
|         397|  4.1951e-01|   -7.192626|   -1.731419|    0.023034|   -0.669964|
|         398|  4.1952e-01|   -7.227387|   -1.766265|    0.021766|   -0.777972|
|         399|  4.1948e-01|   -7.271391|   -1.810386|    0.020281|   -0.873050|
|         400|  4.1945e-01|   -7.326562|   -1.865719|    0.018603|   -0.954030|
|         401|  4.1951e-01|   -7.395949|   -1.935343|    0.016757|   -1.019966|
|         402|  4.1956e-01|   -7.484696|   -2.024457|    0.014771|   -1.070140|
|         403|  4.1964e-01|   -7.602386|   -2.142781|    0.012674|   -1.104069|
|         404|  4.1965e-01|   -7.770024|   -2.311739|    0.010497|   -1.121510|
|         405|  4.1966e-01|   -8.049950|   -2.595864|    0.008273|   -1.122457|
|         406|  4.1955e-01|   -8.744755|   -3.338815|    0.006033|   -1.107143|
|         407|  4.1955e-01|   -8.118279|   -2.651155|    0.003810|   -1.076029|
|         408|  4.1960e-01|   -7.814784|   -2.349587|    0.001637|   -1.029797|
|         409|  4.1966e-01|   -7.643043|   -2.178744|   -0.000455|   -0.969335|
|         410|  4.1968e-01|   -7.526451|   -2.062636|   -0.002437|   -0.895725|
|         411|  4.1966e-01|   -7.440918|   -1.977400|   -0.004280|   -0.810222|
|         412|  4.1956e-01|   -7.375811|   -1.912490|   -0.005958|   -0.714233|
|         413|  4.1953e-01|   -7.325533|   -1.862348|   -0.007447|   -0.609299|
|         414|  4.1948e-01|   -7.286802|   -1.823715|   -0.008727|   -0.497064|
|         415|  4.1951e-01|   -7.257569|   -1.794551|   -0.009780|   -0.379257|
|         416|  4.1955e-01|   -7.236500|   -1.773531|   -0.010591|   -0.257658|
|         417|  4.1961e-01|   -7.222722|   -1.759786|   -0.011151|   -0.134076|
|         418|  4.1963e-01|   -7.215679|   -1.752761|   -0.011452|   -0.010322|
|         419|  4.1966e-01|   -7.215055|   -1.752144|   -0.011490|    0.111821|
|         420|  4.1963e-01|   -7.220733|   -1.757817|   -0.011268|    0.230618|
|         421|  4.1960e-01|   -7.232783|   -1.769848|   -0.010789|    0.344411|
|         422|  4.1963e-01|   -7.251466|   -1.788500|   -0.010061|    0.451641|
|         423|  4.1971e-01|   -7.277272|   -1.814258|   -0.009097|    0.550867|
|         424|  4.1975e-01|   -7.310983|   -1.847900|   -0.007911|    0.640787|
|         425|  4.1974e-01|   -7.353796|   -1.890617|   -0.006522|    0.720251|
|         426|  4.1971e-01|   -7.407545|   -1.944230|   -0.004952|    0.788279|
|         427|  4.1969e-01|   -7.475129|   -2.011615|   -0.003224|    0.844070|
|         428|  4.1973e-01|   -7.561399|   -2.097581|   -0.001365|    0.887012|
|         429|  4.1976e-01|   -7.675284|   -2.210963|    0.000598|    0.916686|
|         430|  4.1977e-01|   -7.835972|   -2.370688|    0.002635|    0.932870|
|         431|  4.1984e-01|   -8.098281|   -2.630536|    0.004715|    0.935540|
|         432|  4.1988e-01|   -8.762136|   -3.286382|    0.006807|    0.924866|
|         433|  4.1982e-01|   -8.257935|   -2.805172|    0.008879|    0.901207|
|         434|  4.1985e-01|   -7.926014|   -2.468190|    0.010901|    0.865103|
|         435|  4.1988e-01|   -7.745184|   -2.285900|    0.012845|    0.817264|
|         436|  4.1995e-01|   -7.624026|   -2.164065|    0.014681|    0.758556|
|         437|  4.2003e-01|   -7.535660|   -2.075317|    0.016384|    0.689990|
|         438|  4.2006e-01|   -7.468555|   -2.007972|    0.017930|    0.612701|
|         439|  4.2015e-01|   -7.416733|   -1.955993|    0.019299|    0.527932|
|         440|  4.2015e-01|   -7.376728|   -1.915880|    0.020471|    0.437013|
|         441|  4.2007e-01|   -7.346383|   -1.885462|    0.021431|    0.341344|
|         442|  4.2010e-01|   -7.324298|   -1.863330|    0.022168|    0.242370|
|         443|  4.2016e-01|   -7.309557|   -1.848561|    0.022671|    0.141561|
|         444|  4.2025e-01|   -7.301567|   -1.840562|    0.022936|    0.040391|
|         445|  4.2028e-01|   -7.299986|   -1.838987|    0.022960|   -0.059683|
|         446|  4.2024e-01|   -7.304667|   -1.843691|    0.022744|   -0.157245|
|         447|  4.2019e-01|   -7.315651|   -1.854713|    0.022294|   -0.250932|
|         448|  4.2015e-01|   -7.333163|   -1.872285|    0.021617|   -0.339461|
|         449|  4.2022e-01|   -7.357647|   -1.896851|    0.020725|   -0.421641|
|         450|  4.2026e-01|   -7.389818|   -1.929136|    0.019631|   -0.496391|
|         451|  4.2033e-01|   -7.430778|   -1.970250|    0.018354|   -0.562752|
|         452|  4.2036e-01|   -7.482201|   -2.021889|    0.016913|   -0.619901|
|         453|  4.2028e-01|   -7.546709|   -2.086709|    0.015329|   -0.667156|
|         454|  4.2036e-01|   -7.628623|   -2.169097|    0.013627|   -0.703989|
|         455|  4.2043e-01|   -7.735695|   -2.276960|    0.011832|   -0.730031|
|         456|  4.2050e-01|   -7.883881|   -2.426685|    0.009970|   -0.745069|
|         457|  4.2052e-01|   -8.114924|   -2.661847|    0.008070|   -0.749054|
|         458|  4.2050e-01|   -8.607963|   -3.183776|    0.006159|   -0.742093|
|         459|  4.2042e-01|   -8.451507|   -2.982019|    0.004264|   -0.724452|
|         460|  4.2044e-01|   -8.062249|   -2.595003|    0.002414|   -0.696544|
|         461|  4.2052e-01|   -7.863342|   -2.397675|    0.000634|   -0.658925|
|         462|  4.2057e-01|   -7.733384|   -2.268545|   -0.001050|   -0.612279|
|         463|  4.2062e-01|   -7.639743|   -2.175398|   -0.002614|   -0.557414|
|         464|  4.2064e-01|   -7.569069|   -2.105045|   -0.004036|   -0.495241|
|         465|  4.2055e-01|   -7.514630|   -2.050827|   -0.005297|   -0.426765|
|         466|  4.2062e-01|   -7.472591|   -2.008943|   -0.006379|   -0.353065|
|         467|  4.2068e-01|   -7.440591|   -1.977054|   -0.007268|   -0.275280|
|         468|  4.2075e-01|   -7.417110|   -1.953652|   -0.007952|   -0.194592|
|         469|  4.2075e-01|   -7.401154|   -1.937748|   -0.008423|   -0.112204|
|         470|  4.2075e-01|   -7.392077|   -1.928702|   -0.008675|   -0.029327|
|         471|  4.2070e-01|   -7.389495|   -1.926133|   -0.008706|    0.052839|
|         472|  4.2070e-01|   -7.393233|   -1.929864|   -0.008516|    0.133124|
|         473|  4.2073e-01|   -7.403302|   -1.939909|   -0.008111|    0.210402|
|         474|  4.2079e-01|   -7.419903|   -1.956465|   -0.007497|    0.283607|
|         475|  4.2078e-01|   -7.443452|   -1.979944|   -0.006684|    0.351751|
|         476|  4.2075e-01|   -7.474630|   -2.011023|   -0.005686|    0.413931|
|         477|  4.2080e-01|   -7.514491|   -2.050745|   -0.004518|    0.469346|
|         478|  4.2087e-01|   -7.564641|   -2.100701|   -0.003199|    0.517303|
|         479|  4.2086e-01|   -7.627589|   -2.163369|   -0.001748|    0.557229|
|         480|  4.2080e-01|   -7.707443|   -2.242807|   -0.000188|    0.588672|
|         481|  4.2080e-01|   -7.811515|   -2.346210|    0.001457|    0.611313|
|         482|  4.2087e-01|   -7.954634|   -2.488122|    0.003162|    0.624961|
|         483|  4.2089e-01|   -8.174617|   -2.705378|    0.004903|    0.629559|
|         484|  4.2090e-01|   -8.628350|   -3.149210|    0.006653|    0.625182|
|         485|  4.2088e-01|   -8.607976|   -3.167952|    0.008387|    0.612029|
|         486|  4.2090e-01|   -8.175347|   -2.721240|    0.010080|    0.590426|
|         487|  4.2095e-01|   -7.965525|   -2.508310|    0.011707|    0.560811|
|         488|  4.2092e-01|   -7.830549|   -2.372023|    0.013247|    0.523733|
|         489|  4.2091e-01|   -7.733921|   -2.274686|    0.014675|    0.479839|
|         490|  4.2089e-01|   -7.661183|   -2.201515|    0.015974|    0.429862|
|         491|  4.2092e-01|   -7.605169|   -2.145217|    0.017125|    0.374613|
|         492|  4.2096e-01|   -7.561836|   -2.101690|    0.018112|    0.314966|
|         493|  4.2101e-01|   -7.528708|   -2.068429|    0.018923|    0.251842|
|         494|  4.2103e-01|   -7.504198|   -2.043831|    0.019547|    0.186200|
|         495|  4.2108e-01|   -7.487263|   -2.026839|    0.019977|    0.119021|
|         496|  4.2112e-01|   -7.477222|   -2.016772|    0.020208|    0.051291|
|         497|  4.2113e-01|   -7.473663|   -2.013211|    0.020238|   -0.016011|
|         498|  4.2108e-01|   -7.476381|   -2.015951|    0.020068|   -0.081925|
|         499|  4.2113e-01|   -7.485359|   -2.024976|    0.019703|   -0.145528|
|         500|  4.2113e-01|   -7.500761|   -2.040453|    0.019150|   -0.205943|
|         501|  4.2107e-01|   -7.522955|   -2.062755|    0.018417|   -0.262353|
|         502|  4.2106e-01|   -7.552560|   -2.092511|    0.017517|   -0.314008|
|         503|  4.2110e-01|   -7.590533|   -2.130691|    0.016464|   -0.360242|
|         504|  4.2111e-01|   -7.638330|   -2.178775|    0.015274|   -0.400472|
|         505|  4.2106e-01|   -7.698200|   -2.239055|    0.013966|   -0.434214|
|         506|  4.2109e-01|   -7.773772|   -2.315242|    0.012560|   -0.461081|
|         507|  4.2114e-01|   -7.871339|   -2.413801|    0.011076|   -0.480792|
|         508|  4.2123e-01|   -8.003145|   -2.547434|    0.009537|   -0.493172|
|         509|  4.2124e-01|   -8.198044|   -2.746630|    0.007966|   -0.498156|
|         510|  4.2118e-01|   -8.553358|   -3.120595|    0.006384|   -0.495782|
|         511|  4.2117e-01|   -8.836701|   -3.379974|    0.004816|   -0.486197|
|         512|  4.2116e-01|   -8.327275|   -2.856849|    0.003284|   -0.469646|
|         513|  4.2120e-01|   -8.091626|   -2.623805|    0.001809|   -0.446472|
|         514|  4.2126e-01|   -7.945048|   -2.478626|    0.000414|   -0.417109|
|         515|  4.2132e-01|   -7.841792|   -2.376189|   -0.000884|   -0.382071|
|         516|  4.2130e-01|   -7.764716|   -2.299638|   -0.002066|   -0.341947|
|         517|  4.2125e-01|   -7.705601|   -2.240878|   -0.003115|   -0.297391|
|         518|  4.2127e-01|   -7.659907|   -2.195434|   -0.004017|   -0.249110|
|         519|  4.2129e-01|   -7.624896|   -2.160601|   -0.004761|   -0.197853|
|         520|  4.2133e-01|   -7.598826|   -2.134657|   -0.005336|   -0.144403|
|         521|  4.2135e-01|   -7.580556|   -2.116472|   -0.005737|   -0.089560|
|         522|  4.2129e-01|   -7.569343|   -2.105311|   -0.005957|   -0.034134|
|         523|  4.2127e-01|   -7.564725|   -2.100716|   -0.005996|    0.021070|
|         524|  4.2129e-01|   -7.566466|   -2.102453|   -0.005855|    0.075262|
|         525|  4.2135e-01|   -7.574518|   -2.110473|   -0.005536|    0.127680|
|         526|  4.2136e-01|   -7.589021|   -2.124915|   -0.005046|    0.177596|
|         527|  4.2139e-01|   -7.610318|   -2.146117|   -0.004392|    0.224334|
|         528|  4.2136e-01|   -7.639000|   -2.174662|   -0.003587|    0.267269|
|         529|  4.2137e-01|   -7.675989|   -2.211460|   -0.002643|    0.305843|
|         530|  4.2143e-01|   -7.722693|   -2.257897|   -0.001574|    0.339570|
|         531|  4.2149e-01|   -7.781284|   -2.316111|   -0.000397|    0.368039|
|         532|  4.2150e-01|   -7.855257|   -2.389531|    0.000869|    0.390922|
|         533|  4.2151e-01|   -7.950643|   -2.484056|    0.002207|    0.407976|
|         534|  4.2144e-01|   -8.079071|   -2.611010|    0.003595|    0.419047|
|         535|  4.2139e-01|   -8.267577|   -2.796513|    0.005013|    0.424068|
|         536|  4.2137e-01|   -8.605860|   -3.126240|    0.006440|    0.423058|
|         537|  4.2138e-01|   -9.009729|   -3.597444|    0.007857|    0.416125|
|         538|  4.2132e-01|   -8.440926|   -2.994213|    0.009241|    0.403460|
|         539|  4.2132e-01|   -8.192528|   -2.738923|    0.010574|    0.385333|
|         540|  4.2132e-01|   -8.040758|   -2.584596|    0.011836|    0.362087|
|         541|  4.2139e-01|   -7.934559|   -2.477095|    0.013010|    0.334133|
|         542|  4.2141e-01|   -7.855491|   -2.397253|    0.014079|    0.301946|
|         543|  4.2144e-01|   -7.794861|   -2.336124|    0.015029|    0.266051|
|         544|  4.2146e-01|   -7.747918|   -2.288844|    0.015848|    0.227020|
|         545|  4.2146e-01|   -7.711811|   -2.252504|    0.016524|    0.185461|
|         546|  4.2145e-01|   -7.684729|   -2.225263|    0.017049|    0.142009|
|         547|  4.2143e-01|   -7.665486|   -2.205917|    0.017417|    0.097314|
|         548|  4.2144e-01|   -7.653306|   -2.193678|    0.017623|    0.052038|
|         549|  4.2142e-01|   -7.647699|   -2.188051|    0.017667|    0.006838|
|         550|  4.2142e-01|   -7.648398|   -2.188768|    0.017548|   -0.037639|
|         551|  4.2145e-01|   -7.655327|   -2.195751|    0.017271|   -0.080766|
|         552|  4.2146e-01|   -7.668590|   -2.209107|    0.016840|   -0.121946|
|         553|  4.2153e-01|   -7.688482|   -2.229140|    0.016263|   -0.160617|
|         554|  4.2154e-01|   -7.715528|   -2.256385|    0.015550|   -0.196263|
|         555|  4.2151e-01|   -7.750556|   -2.291687|    0.014711|   -0.228420|
|         556|  4.2156e-01|   -7.794824|   -2.336335|    0.013761|   -0.256678|
|         557|  4.2162e-01|   -7.850254|   -2.392305|    0.012714|   -0.280693|
|         558|  4.2164e-01|   -7.919892|   -2.462736|    0.011586|   -0.300183|
|         559|  4.2164e-01|   -8.008853|   -2.552947|    0.010393|   -0.314938|
|         560|  4.2161e-01|   -8.126607|   -2.672893|    0.009155|   -0.324819|
|         561|  4.2162e-01|   -8.293584|   -2.844532|    0.007888|   -0.329757|
|         562|  4.2168e-01|   -8.567079|   -3.133125|    0.006611|   -0.329756|
|         563|  4.2168e-01|   -9.068595|   -3.709485|    0.005344|   -0.324892|
|         564|  4.2165e-01|   -8.616698|   -3.142552|    0.004103|   -0.315307|
|         565|  4.2163e-01|   -8.330407|   -2.859307|    0.002908|   -0.301211|
|         566|  4.2166e-01|   -8.162676|   -2.693845|    0.001774|   -0.282874|
|         567|  4.2168e-01|   -8.047806|   -2.580312|    0.000718|   -0.260624|
|         568|  4.2173e-01|   -7.963258|   -2.496612|   -0.000246|   -0.234839|
|         569|  4.2166e-01|   -7.898818|   -2.432742|   -0.001105|   -0.205944|
|         570|  4.2167e-01|   -7.849043|   -2.383364|   -0.001847|   -0.174399|
|         571|  4.2172e-01|   -7.810724|   -2.345328|   -0.002463|   -0.140699|
|         572|  4.2173e-01|   -7.781847|   -2.316652|   -0.002944|   -0.105360|
|         573|  4.2169e-01|   -7.761101|   -2.296045|   -0.003285|   -0.068913|
|         574|  4.2168e-01|   -7.747628|   -2.282659|   -0.003482|   -0.031900|
|         575|  4.2170e-01|   -7.740883|   -2.275957|   -0.003533|    0.005140|
|         576|  4.2174e-01|   -7.740558|   -2.275636|   -0.003440|    0.041676|
|         577|  4.2178e-01|   -7.746547|   -2.281589|   -0.003204|    0.077189|
|         578|  4.2180e-01|   -7.758927|   -2.293891|   -0.002830|    0.111185|
|         579|  4.2182e-01|   -7.777973|   -2.312813|   -0.002325|    0.143201|
|         580|  4.2180e-01|   -7.804190|   -2.338847|   -0.001697|    0.172806|
|         581|  4.2179e-01|   -7.838382|   -2.372784|   -0.000957|    0.199613|
|         582|  4.2181e-01|   -7.881779|   -2.415828|   -0.000116|    0.223279|
|         583|  4.2187e-01|   -7.936265|   -2.469819|    0.000813|    0.243513|
|         584|  4.2187e-01|   -8.004822|   -2.537665|    0.001816|    0.260077|
|         585|  4.2187e-01|   -8.092458|   -2.624227|    0.002877|    0.272790|
|         586|  4.2184e-01|   -8.208413|   -2.738429|    0.003980|    0.281528|
|         587|  4.2189e-01|   -8.372563|   -2.899313|    0.005110|    0.286226|
|         588|  4.2194e-01|   -8.640774|   -3.159932|    0.006249|    0.286880|
|         589|  4.2193e-01|   -9.183400|   -3.724227|    0.007381|    0.283542|
|         590|  4.2189e-01|   -8.726902|   -3.296489|    0.008490|    0.276320|
|         591|  4.2186e-01|   -8.427237|   -2.980213|    0.009560|    0.265378|
|         592|  4.2189e-01|   -8.254971|   -2.802792|    0.010575|    0.250929|
|         593|  4.2194e-01|   -8.137675|   -2.683069|    0.011522|    0.233236|
|         594|  4.2200e-01|   -8.051493|   -2.595506|    0.012388|    0.212600|
|         595|  4.2194e-01|   -7.985788|   -2.528930|    0.013161|    0.189363|
|         596|  4.2198e-01|   -7.934939|   -2.477499|    0.013830|    0.163897|
|         597|  4.2197e-01|   -7.895645|   -2.437805|    0.014387|    0.136603|
|         598|  4.2195e-01|   -7.865840|   -2.407723|    0.014824|    0.107899|
|         599|  4.2193e-01|   -7.844175|   -2.385873|    0.015137|    0.078218|
|         600|  4.2195e-01|   -7.829764|   -2.371349|    0.015323|    0.048000|
|         601|  4.2199e-01|   -7.822036|   -2.363569|    0.015379|    0.017688|
|         602|  4.2203e-01|   -7.820658|   -2.362194|    0.015306|   -0.012283|
|         603|  4.2207e-01|   -7.825493|   -2.367087|    0.015107|   -0.041489|
|         604|  4.2206e-01|   -7.836583|   -2.378292|    0.014785|   -0.069522|
|         605|  4.2201e-01|   -7.854155|   -2.396043|    0.014347|   -0.095998|
|         606|  4.2203e-01|   -7.878644|   -2.420793|    0.013799|   -0.120562|
|         607|  4.2206e-01|   -7.910758|   -2.453268|    0.013150|   -0.142891|
|         608|  4.2211e-01|   -7.951574|   -2.494587|    0.012412|   -0.162697|
|         609|  4.2214e-01|   -8.002730|   -2.546449|    0.011595|   -0.179736|
|         610|  4.2211e-01|   -8.066771|   -2.611518|    0.010711|   -0.193806|
|         611|  4.2207e-01|   -8.147856|   -2.694185|    0.009775|   -0.204749|
|         612|  4.2203e-01|   -8.253339|   -2.802331|    0.008800|   -0.212456|
|         613|  4.2204e-01|   -8.397915|   -2.952150|    0.007801|   -0.216867|
|         614|  4.2208e-01|   -8.617234|   -3.185454|    0.006792|   -0.217966|
|         615|  4.2210e-01|   -9.011760|   -3.652277|    0.005788|   -0.215790|
|         616|  4.2215e-01|   -8.930327|   -3.461615|    0.004803|   -0.210419|
|         617|  4.2212e-01|   -8.582475|   -3.107057|    0.003852|   -0.201979|
|         618|  4.2207e-01|   -8.387661|   -2.915352|    0.002947|   -0.190637|
|         619|  4.2208e-01|   -8.258608|   -2.788361|    0.002102|   -0.176600|
|         620|  4.2211e-01|   -8.165250|   -2.696328|    0.001327|   -0.160109|
|         621|  4.2218e-01|   -8.094693|   -2.626662|    0.000635|   -0.141441|
|         622|  4.2221e-01|   -8.040322|   -2.572913|    0.000032|   -0.120894|
|         623|  4.2221e-01|   -7.998341|   -2.531373|   -0.000471|   -0.098792|
|         624|  4.2212e-01|   -7.966402|   -2.499750|   -0.000870|   -0.075476|
|         625|  4.2210e-01|   -7.942993|   -2.476560|   -0.001158|   -0.051300|
|         626|  4.2211e-01|   -7.927118|   -2.460829|   -0.001334|   -0.026622|
|         627|  4.2216e-01|   -7.918137|   -2.451928|   -0.001396|   -0.001805|
|         628|  4.2222e-01|   -7.915669|   -2.449480|   -0.001343|    0.022793|
|         629|  4.2227e-01|   -7.919540|   -2.453316|   -0.001178|    0.046822|
|         630|  4.2227e-01|   -7.929768|   -2.463449|   -0.000905|    0.069947|
|         631|  4.2220e-01|   -7.946559|   -2.480082|   -0.000527|    0.091849|
|         632|  4.2220e-01|   -7.970337|   -2.503625|   -0.000051|    0.112234|
|         633|  4.2223e-01|   -8.001798|   -2.534757|    0.000514|    0.130831|
|         634|  4.2230e-01|   -8.042014|   -2.574518|    0.001159|    0.147401|
|         635|  4.2232e-01|   -8.092621|   -2.624496|    0.001876|    0.161737|
|         636|  4.2232e-01|   -8.156171|   -2.687156|    0.002652|    0.173669|
|         637|  4.2231e-01|   -8.236845|   -2.766525|    0.003476|    0.183061|
|         638|  4.2229e-01|   -8.342063|   -2.869707|    0.004335|    0.189817|
|         639|  4.2233e-01|   -8.486754|   -3.010905|    0.005217|    0.193882|
|         640|  4.2237e-01|   -8.707735|   -3.225049|    0.006109|    0.195238|
|         641|  4.2240e-01|   -9.118856|   -3.632877|    0.006998|    0.193906|
|         642|  4.2245e-01|   -9.028351|   -3.637426|    0.007870|    0.189948|
|         643|  4.2241e-01|   -8.669803|   -3.235583|    0.008714|    0.183459|
|         644|  4.2241e-01|   -8.473088|   -3.027870|    0.009518|    0.174573|
|         645|  4.2244e-01|   -8.343093|   -2.893218|    0.010271|    0.163451|
|         646|  4.2246e-01|   -8.249006|   -2.796623|    0.010961|    0.150290|
|         647|  4.2249e-01|   -8.177773|   -2.723859|    0.011580|    0.135307|
|         648|  4.2247e-01|   -8.122731|   -2.667811|    0.012120|    0.118746|
|         649|  4.2245e-01|   -8.080055|   -2.624448|    0.012574|    0.100869|
|         650|  4.2246e-01|   -8.047384|   -2.591302|    0.012935|    0.081951|
|         651|  4.2250e-01|   -8.023189|   -2.566783|    0.013199|    0.062279|
|         652|  4.2254e-01|   -8.006462|   -2.549848|    0.013365|    0.042148|
|         653|  4.2254e-01|   -7.996544|   -2.539818|    0.013429|    0.021852|
|         654|  4.2256e-01|   -7.993033|   -2.536279|    0.013394|    0.001686|
|         655|  4.2257e-01|   -7.995729|   -2.539028|    0.013258|   -0.018064|
|         656|  4.2251e-01|   -8.004612|   -2.548048|    0.013027|   -0.037122|
|         657|  4.2257e-01|   -8.019840|   -2.563505|    0.012704|   -0.055224|
|         658|  4.2261e-01|   -8.041767|   -2.585769|    0.012294|   -0.072125|
|         659|  4.2265e-01|   -8.070984|   -2.615464|    0.011805|   -0.087602|
|         660|  4.2265e-01|   -8.108407|   -2.653549|    0.011244|   -0.101454|
|         661|  4.2268e-01|   -8.155418|   -2.701490|    0.010621|   -0.113508|
|         662|  4.2262e-01|   -8.214134|   -2.761542|    0.009943|   -0.123618|
|         663|  4.2260e-01|   -8.287921|   -2.837347|    0.009223|   -0.131668|
|         664|  4.2261e-01|   -8.382485|   -2.935197|    0.008471|   -0.137576|
|         665|  4.2268e-01|   -8.508475|   -3.067263|    0.007697|   -0.141287|
|         666|  4.2272e-01|   -8.688775|   -3.261684|    0.006914|   -0.142783|
|         667|  4.2275e-01|   -8.979232|   -3.604174|    0.006132|   -0.142076|
|         668|  4.2275e-01|   -9.199675|   -3.802784|    0.005363|   -0.139210|
|         669|  4.2269e-01|   -8.848626|   -3.370697|    0.004618|   -0.134258|
|         670|  4.2271e-01|   -8.621271|   -3.144542|    0.003907|   -0.127323|
|         671|  4.2272e-01|   -8.475041|   -3.001011|    0.003240|   -0.118534|
|         672|  4.2276e-01|   -8.371282|   -2.899174|    0.002627|   -0.108046|
|         673|  4.2278e-01|   -8.293668|   -2.822888|    0.002075|   -0.096036|
|         674|  4.2276e-01|   -8.234100|   -2.764256|    0.001593|   -0.082697|
|         675|  4.2274e-01|   -8.188044|   -2.718870|    0.001185|   -0.068243|
|         676|  4.2272e-01|   -8.152749|   -2.684057|    0.000858|   -0.052896|
|         677|  4.2275e-01|   -8.126458|   -2.658107|    0.000616|   -0.036892|
|         678|  4.2279e-01|   -8.108019|   -2.639897|    0.000460|   -0.020468|
|         679|  4.2280e-01|   -8.096680|   -2.628695|    0.000393|   -0.003868|
|         680|  4.2286e-01|   -8.091977|   -2.624045|    0.000414|    0.012668|
|         681|  4.2286e-01|   -8.093668|   -2.625710|    0.000523|    0.028904|
|         682|  4.2283e-01|   -8.101704|   -2.633641|    0.000716|    0.044612|
|         683|  4.2288e-01|   -8.116228|   -2.647972|    0.000991|    0.059575|
|         684|  4.2289e-01|   -8.137584|   -2.669039|    0.001341|    0.073588|
|         685|  4.2291e-01|   -8.166370|   -2.697414|    0.001763|    0.086467|
|         686|  4.2288e-01|   -8.203516|   -2.733994|    0.002248|    0.098043|
|         687|  4.2284e-01|   -8.250440|   -2.780143|    0.002790|    0.108170|
|         688|  4.2287e-01|   -8.309328|   -2.837956|    0.003379|    0.116726|
|         689|  4.2289e-01|   -8.383681|   -2.910780|    0.004007|    0.123612|
|         690|  4.2293e-01|   -8.479494|   -3.004321|    0.004665|    0.128753|
|         691|  4.2293e-01|   -8.608117|   -3.129364|    0.005342|    0.132104|
|         692|  4.2289e-01|   -8.794563|   -3.309929|    0.006029|    0.133644|
|         693|  4.2292e-01|   -9.102716|   -3.615490|    0.006715|    0.133378|
|         694|  4.2296e-01|   -9.284885|   -3.963157|    0.007391|    0.131338|
|         695|  4.2298e-01|   -8.916204|   -3.509170|    0.008048|    0.127579|
|         696|  4.2294e-01|   -8.693706|   -3.261352|    0.008675|    0.122183|
|         697|  4.2299e-01|   -8.549974|   -3.108235|    0.009264|    0.115250|
|         698|  4.2302e-01|   -8.447423|   -3.000981|    0.009808|    0.106905|
|         699|  4.2306e-01|   -8.370339|   -2.921140|    0.010298|    0.097289|
|         700|  4.2307e-01|   -8.310897|   -2.859934|    0.010728|    0.086558|
|         701|  4.2308e-01|   -8.264697|   -2.812545|    0.011093|    0.074883|
|         702|  4.2303e-01|   -8.229056|   -2.776083|    0.011388|    0.062446|
|         703|  4.2303e-01|   -8.202250|   -2.748712|    0.011609|    0.049437|
|         704|  4.2303e-01|   -8.183142|   -2.729230|    0.011755|    0.036051|
|         705|  4.2308e-01|   -8.170980|   -2.716847|    0.011823|    0.022486|
|         706|  4.2311e-01|   -8.165289|   -2.711066|    0.011814|    0.008939|
|         707|  4.2311e-01|   -8.165805|   -2.711614|    0.011728|   -0.004397|
|         708|  4.2313e-01|   -8.172448|   -2.718411|    0.011568|   -0.017334|
|         709|  4.2307e-01|   -8.185308|   -2.731556|    0.011336|   -0.029691|
|         710|  4.2312e-01|   -8.204657|   -2.751342|    0.011038|   -0.041302|
|         711|  4.2317e-01|   -8.230981|   -2.778294|    0.010677|   -0.052010|
|         712|  4.2323e-01|   -8.265044|   -2.813234|    0.010259|   -0.061677|
|         713|  4.2324e-01|   -8.307999|   -2.857416|    0.009792|   -0.070179|
|         714|  4.2321e-01|   -8.361587|   -2.912754|    0.009282|   -0.077412|
|         715|  4.2321e-01|   -8.428506|   -2.982271|    0.008737|   -0.083293|
|         716|  4.2319e-01|   -8.513148|   -3.071027|    0.008166|   -0.087757|
|         717|  4.2322e-01|   -8.623199|   -3.188305|    0.007577|   -0.090761|
|         718|  4.2322e-01|   -8.773475|   -3.353715|    0.006978|   -0.092286|
|         719|  4.2323e-01|   -8.994506|   -3.618304|    0.006378|   -0.092332|
|         720|  4.2321e-01|   -9.275895|   -4.010202|    0.005787|   -0.090920|
|         721|  4.2321e-01|   -9.114580|   -3.652942|    0.005211|   -0.088092|
|         722|  4.2321e-01|   -8.862790|   -3.382966|    0.004660|   -0.083912|
|         723|  4.2324e-01|   -8.697416|   -3.219002|    0.004141|   -0.078459|
|         724|  4.2325e-01|   -8.581738|   -3.105561|    0.003662|   -0.071831|
|         725|  4.2325e-01|   -8.496091|   -3.021679|    0.003228|   -0.064141|
|         726|  4.2327e-01|   -8.430677|   -2.957570|    0.002846|   -0.055515|
|         727|  4.2325e-01|   -8.380097|   -2.907949|    0.002520|   -0.046091|
|         728|  4.2326e-01|   -8.341122|   -2.869676|    0.002255|   -0.036017|
|         729|  4.2329e-01|   -8.311709|   -2.840769|    0.002053|   -0.025445|
|         730|  4.2333e-01|   -8.290525|   -2.819934|    0.001918|   -0.014537|
|         731|  4.2336e-01|   -8.276691|   -2.806321|    0.001849|   -0.003453|
|         732|  4.2336e-01|   -8.269650|   -2.799386|    0.001849|    0.007646|
|         733|  4.2337e-01|   -8.269084|   -2.798820|    0.001915|    0.018599|
|         734|  4.2338e-01|   -8.274881|   -2.804510|    0.002046|    0.029253|
|         735|  4.2333e-01|   -8.287113|   -2.816525|    0.002240|    0.039459|
|         736|  4.2338e-01|   -8.306052|   -2.835122|    0.002493|    0.049077|
|         737|  4.2341e-01|   -8.332200|   -2.860781|    0.002801|    0.057979|
|         738|  4.2346e-01|   -8.366358|   -2.894268|    0.003159|    0.066049|
|         739|  4.2346e-01|   -8.409748|   -2.936751|    0.003561|    0.073182|
|         740|  4.2343e-01|   -8.464237|   -2.990009|    0.004001|    0.079291|
|         741|  4.2339e-01|   -8.532749|   -3.056831|    0.004473|    0.084305|
|         742|  4.2339e-01|   -8.620112|   -3.141829|    0.004968|    0.088168|
|         743|  4.2343e-01|   -8.734936|   -3.253310|    0.005480|    0.090841|
|         744|  4.2345e-01|   -8.894228|   -3.408306|    0.006002|    0.092306|
|         745|  4.2350e-01|   -9.132902|   -3.649341|    0.006524|    0.092560|
|         746|  4.2348e-01|   -9.385546|   -4.053581|    0.007041|    0.091617|
|         747|  4.2348e-01|   -9.148912|   -3.802095|    0.007545|    0.089509|
|         748|  4.2351e-01|   -8.911956|   -3.504782|    0.008028|    0.086284|
|         749|  4.2355e-01|   -8.755942|   -3.328827|    0.008484|    0.082005|
|         750|  4.2355e-01|   -8.645254|   -3.208947|    0.008906|    0.076750|
|         751|  4.2353e-01|   -8.562415|   -3.120990|    0.009290|    0.070609|
|         752|  4.2351e-01|   -8.498605|   -3.054005|    0.009629|    0.063683|
|         753|  4.2351e-01|   -8.448887|   -3.002188|    0.009919|    0.056084|
|         754|  4.2354e-01|   -8.410269|   -2.962135|    0.010157|    0.047931|
|         755|  4.2356e-01|   -8.380839|   -2.931713|    0.010340|    0.039349|
|         756|  4.2358e-01|   -8.359330|   -2.909535|    0.010466|    0.030467|
|         757|  4.2358e-01|   -8.344902|   -2.894686|    0.010533|    0.021417|
|         758|  4.2354e-01|   -8.337006|   -2.886578|    0.010542|    0.012332|
|         759|  4.2358e-01|   -8.335316|   -2.884864|    0.010492|    0.003342|
|         760|  4.2362e-01|   -8.339691|   -2.889395|    0.010386|   -0.005425|
|         761|  4.2364e-01|   -8.350154|   -2.900207|    0.010224|   -0.013847|
|         762|  4.2364e-01|   -8.366900|   -2.917518|    0.010011|   -0.021810|
|         763|  4.2360e-01|   -8.390313|   -2.941758|    0.009750|   -0.029205|
|         764|  4.2356e-01|   -8.421016|   -2.973626|    0.009445|   -0.035936|
|         765|  4.2358e-01|   -8.459948|   -3.014190|    0.009101|   -0.041915|
|         766|  4.2357e-01|   -8.508514|   -3.065069|    0.008723|   -0.047070|
|         767|  4.2361e-01|   -8.568835|   -3.128778|    0.008318|   -0.051338|
|         768|  4.2362e-01|   -8.644222|   -3.209399|    0.007890|   -0.054672|
|         769|  4.2366e-01|   -8.740104|   -3.314084|    0.007448|   -0.057039|
|         770|  4.2369e-01|   -8.865892|   -3.456828|    0.006996|   -0.058418|
|         771|  4.2365e-01|   -9.037853|   -3.669584|    0.006542|   -0.058806|
|         772|  4.2365e-01|   -9.262496|   -4.013941|    0.006093|   -0.058212|
|         773|  4.2366e-01|   -9.314983|   -3.943360|    0.005654|   -0.056660|
|         774|  4.2368e-01|   -9.102012|   -3.631498|    0.005232|   -0.054185|
|         775|  4.2367e-01|   -8.923367|   -3.442932|    0.004833|   -0.050839|
|         776|  4.2368e-01|   -8.795894|   -3.315830|    0.004463|   -0.046681|
|         777|  4.2365e-01|   -8.701729|   -3.223243|    0.004125|   -0.041784|
|         778|  4.2362e-01|   -8.630005|   -3.152995|    0.003826|   -0.036229|
|         779|  4.2364e-01|   -8.574528|   -3.098708|    0.003568|   -0.030106|
|         780|  4.2368e-01|   -8.531583|   -3.056679|    0.003355|   -0.023511|
|         781|  4.2372e-01|   -8.498823|   -3.024602|    0.003189|   -0.016546|
|         782|  4.2375e-01|   -8.474716|   -3.000986|    0.003074|   -0.009317|
|         783|  4.2377e-01|   -8.458247|   -2.984843|    0.003008|   -0.001930|
|         784|  4.2371e-01|   -8.448759|   -2.975534|    0.002994|    0.005506|
|         785|  4.2371e-01|   -8.445854|   -2.972673|    0.003030|    0.012883|
|         786|  4.2376e-01|   -8.449348|   -2.976079|    0.003115|    0.020097|
|         787|  4.2379e-01|   -8.459247|   -2.985754|    0.003248|    0.027047|
|         788|  4.2378e-01|   -8.475747|   -3.001884|    0.003427|    0.033637|
|         789|  4.2374e-01|   -8.499260|   -3.024858|    0.003648|    0.039779|
|         790|  4.2374e-01|   -8.530462|   -3.055325|    0.003907|    0.045391|
|         791|  4.2375e-01|   -8.570393|   -3.094278|    0.004201|    0.050401|
|         792|  4.2377e-01|   -8.620622|   -3.143225|    0.004525|    0.054746|
|         793|  4.2378e-01|   -8.683553|   -3.204491|    0.004873|    0.058375|
|         794|  4.2380e-01|   -8.762993|   -3.281819|    0.005241|    0.061245|
|         795|  4.2382e-01|   -8.865280|   -3.381657|    0.005624|    0.063329|
|         796|  4.2378e-01|   -9.001422|   -3.516327|    0.006014|    0.064607|
|         797|  4.2381e-01|   -9.188338|   -3.713043|    0.006407|    0.065073|
|         798|  4.2381e-01|   -9.395329|   -4.031553|    0.006798|    0.064734|
|         799|  4.2386e-01|   -9.325786|   -4.087995|    0.007180|    0.063607|
|         800|  4.2387e-01|   -9.114839|   -3.758128|    0.007547|    0.061719|
|         801|  4.2386e-01|   -8.955129|   -3.555310|    0.007896|    0.059110|
|         802|  4.2384e-01|   -8.839083|   -3.420699|    0.008221|    0.055828|
|         803|  4.2384e-01|   -8.751695|   -3.323501|    0.008518|    0.051929|
|         804|  4.2386e-01|   -8.684140|   -3.250074|    0.008782|    0.047479|
|         805|  4.2388e-01|   -8.631264|   -3.193402|    0.009011|    0.042551|
|         806|  4.2389e-01|   -8.589891|   -3.149465|    0.009201|    0.037223|
|         807|  4.2391e-01|   -8.557975|   -3.115783|    0.009350|    0.031575|
|         808|  4.2387e-01|   -8.534154|   -3.090756|    0.009457|    0.025695|
|         809|  4.2391e-01|   -8.517511|   -3.073326|    0.009520|    0.019671|
|         810|  4.2394e-01|   -8.507435|   -3.062803|    0.009539|    0.013590|
|         811|  4.2398e-01|   -8.503544|   -3.058760|    0.009515|    0.007540|
|         812|  4.2400e-01|   -8.505639|   -3.060980|    0.009447|    0.001609|
|         813|  4.2399e-01|   -8.513680|   -3.069432|    0.009338|   -0.004122|
|         814|  4.2396e-01|   -8.527787|   -3.084261|    0.009189|   -0.009573|
|         815|  4.2395e-01|   -8.548244|   -3.105810|    0.009004|   -0.014670|
|         816|  4.2399e-01|   -8.575538|   -3.134664|    0.008785|   -0.019346|
|         817|  4.2401e-01|   -8.610409|   -3.171724|    0.008535|   -0.023539|
|         818|  4.2405e-01|   -8.653948|   -3.218354|    0.008259|   -0.027199|
|         819|  4.2408e-01|   -8.707760|   -3.276637|    0.007961|   -0.030279|
|         820|  4.2403e-01|   -8.774239|   -3.349870|    0.007646|   -0.032745|
|         821|  4.2407e-01|   -8.857030|   -3.443585|    0.007317|   -0.034570|
|         822|  4.2410e-01|   -8.961753|   -3.567887|    0.006981|   -0.035739|
|         823|  4.2415e-01|   -9.096305|   -3.743375|    0.006642|   -0.036245|
|         824|  4.2416e-01|   -9.262550|   -4.010074|    0.006304|   -0.036090|
|         825|  4.2416e-01|   -9.385359|   -4.174401|    0.005973|   -0.035287|
|         826|  4.2414e-01|   -9.301355|   -3.886513|    0.005654|   -0.033857|
|         827|  4.2413e-01|   -9.141261|   -3.672436|    0.005350|   -0.031830|
|         828|  4.2415e-01|   -9.009133|   -3.529928|    0.005067|   -0.029245|
|         829|  4.2412e-01|   -8.908326|   -3.427571|    0.004807|   -0.026146|
|         830|  4.2415e-01|   -8.830809|   -3.350525|    0.004575|   -0.022586|
|         831|  4.2417e-01|   -8.770538|   -3.291141|    0.004373|   -0.018623|
|         832|  4.2420e-01|   -8.723587|   -3.245057|    0.004204|   -0.014319|
|         833|  4.2423e-01|   -8.687398|   -3.209596|    0.004070|   -0.009743|
|         834|  4.2418e-01|   -8.660275|   -3.183038|    0.003972|   -0.004963|
|         835|  4.2421e-01|   -8.641081|   -3.164246|    0.003912|   -0.000050|
|         836|  4.2423e-01|   -8.629062|   -3.152472|    0.003890|    0.004922|
|         837|  4.2427e-01|   -8.623740|   -3.147248|    0.003906|    0.009881|
|         838|  4.2428e-01|   -8.624862|   -3.148323|    0.003958|    0.014757|
|         839|  4.2425e-01|   -8.632363|   -3.155630|    0.004047|    0.019482|
|         840|  4.2423e-01|   -8.646364|   -3.169284|    0.004171|    0.023989|
|         841|  4.2424e-01|   -8.667182|   -3.189593|    0.004326|    0.028218|
|         842|  4.2425e-01|   -8.695368|   -3.217092|    0.004511|    0.032112|
|         843|  4.2428e-01|   -8.731775|   -3.252621|    0.004723|    0.035621|
|         844|  4.2430e-01|   -8.777672|   -3.297450|    0.004958|    0.038700|
|         845|  4.2427e-01|   -8.834945|   -3.353509|    0.005212|    0.041312|
[...]
|        1771|  4.2523e-01|   -9.654058|   -4.496877|    0.006568|    0.009411|
|        1772|  4.2522e-01|   -9.654361|   -4.496915|    0.006568|    0.009413|
|        1773|  4.2523e-01|   -9.654662|   -4.496953|    0.006567|    0.009415|
|        1774|  4.2524e-01|   -9.654958|   -4.496990|    0.006567|    0.009418|
|        1775|  4.2524e-01|   -9.655252|   -4.497026|    0.006567|    0.009421|
|        1776|  4.2525e-01|   -9.655541|   -4.497062|    0.006566|    0.009424|
|        1777|  4.2524e-01|   -9.655827|   -4.497099|    0.006566|    0.009427|
|        1778|  4.2523e-01|   -9.656109|   -4.497137|    0.006566|    0.009431|
|        1779|  4.2525e-01|   -9.656388|   -4.497176|    0.006566|    0.009434|
|        1780|  4.2527e-01|   -9.656663|   -4.497217|    0.006566|    0.009438|
|        1781|  4.2527e-01|   -9.656935|   -4.497258|    0.006566|    0.009442|
|        1782|  4.2525e-01|   -9.657204|   -4.497302|    0.006566|    0.009445|
|        1783|  4.2524e-01|   -9.657470|   -4.497347|    0.006567|    0.009449|
|        1784|  4.2525e-01|   -9.657733|   -4.497393|    0.006567|    0.009452|
|        1785|  4.2526e-01|   -9.657994|   -4.497441|    0.006567|    0.009455|
|        1786|  4.2527e-01|   -9.658252|   -4.497489|    0.006568|    0.009458|
|        1787|  4.2528e-01|   -9.658509|   -4.497538|    0.006568|    0.009461|
|        1788|  4.2526e-01|   -9.658764|   -4.497587|    0.006569|    0.009463|
|        1789|  4.2528e-01|   -9.659017|   -4.497637|    0.006570|    0.009465|
|        1790|  4.2528e-01|   -9.659270|   -4.497685|    0.006570|    0.009467|
|        1791|  4.2529e-01|   -9.659522|   -4.497733|    0.006571|    0.009468|
|        1792|  4.2529e-01|   -9.659774|   -4.497780|    0.006571|    0.009469|
|        1793|  4.2527e-01|   -9.660025|   -4.497826|    0.006572|    0.009470|
|        1794|  4.2527e-01|   -9.660278|   -4.497870|    0.006573|    0.009470|
|        1795|  4.2527e-01|   -9.660531|   -4.497913|    0.006573|    0.009469|
|        1796|  4.2528e-01|   -9.660785|   -4.497954|    0.006574|    0.009469|
|        1797|  4.2528e-01|   -9.661040|   -4.497994|    0.006574|    0.009468|
|        1798|  4.2526e-01|   -9.661298|   -4.498033|    0.006575|    0.009466|
|        1799|  4.2526e-01|   -9.661557|   -4.498071|    0.006576|    0.009465|
|        1800|  4.2525e-01|   -9.661819|   -4.498108|    0.006576|    0.009463|
|        1801|  4.2526e-01|   -9.662084|   -4.498145|    0.006576|    0.009460|
|        1802|  4.2528e-01|   -9.662351|   -4.498182|    0.006577|    0.009458|
|        1803|  4.2529e-01|   -9.662622|   -4.498218|    0.006577|    0.009455|
|        1804|  4.2528e-01|   -9.662896|   -4.498255|    0.006577|    0.009453|
|        1805|  4.2528e-01|   -9.663172|   -4.498293|    0.006577|    0.009450|
|        1806|  4.2529e-01|   -9.663452|   -4.498331|    0.006577|    0.009447|
|        1807|  4.2528e-01|   -9.663736|   -4.498370|    0.006577|    0.009444|
|        1808|  4.2526e-01|   -9.664022|   -4.498411|    0.006577|    0.009441|
|        1809|  4.2526e-01|   -9.664311|   -4.498452|    0.006577|    0.009438|
|        1810|  4.2527e-01|   -9.664602|   -4.498494|    0.006577|    0.009436|
|        1811|  4.2527e-01|   -9.664896|   -4.498537|    0.006577|    0.009433|
|        1812|  4.2526e-01|   -9.665192|   -4.498580|    0.006576|    0.009431|
|        1813|  4.2527e-01|   -9.665490|   -4.498624|    0.006576|    0.009429|
|        1814|  4.2528e-01|   -9.665790|   -4.498668|    0.006576|    0.009427|
|        1815|  4.2529e-01|   -9.666090|   -4.498712|    0.006575|    0.009426|
|        1816|  4.2530e-01|   -9.666391|   -4.498755|    0.006575|    0.009424|
|        1817|  4.2531e-01|   -9.666692|   -4.498799|    0.006574|    0.009423|
|        1818|  4.2532e-01|   -9.666993|   -4.498841|    0.006574|    0.009423|
|        1819|  4.2531e-01|   -9.667294|   -4.498883|    0.006574|    0.009423|
|        1820|  4.2531e-01|   -9.667594|   -4.498924|    0.006573|    0.009423|
|        1821|  4.2532e-01|   -9.667893|   -4.498965|    0.006573|    0.009423|
|        1822|  4.2533e-01|   -9.668190|   -4.499004|    0.006572|    0.009423|
|        1823|  4.2534e-01|   -9.668486|   -4.499042|    0.006572|    0.009424|
|        1824|  4.2534e-01|   -9.668780|   -4.499080|    0.006571|    0.009426|
|        1825|  4.2534e-01|   -9.669073|   -4.499117|    0.006571|    0.009427|
|        1826|  4.2534e-01|   -9.669363|   -4.499154|    0.006571|    0.009429|
|        1827|  4.2535e-01|   -9.669651|   -4.499191|    0.006571|    0.009431|
|        1828|  4.2534e-01|   -9.669937|   -4.499227|    0.006570|    0.009433|
|        1829|  4.2533e-01|   -9.670221|   -4.499264|    0.006570|    0.009435|
|        1830|  4.2533e-01|   -9.670503|   -4.499301|    0.006570|    0.009437|
|        1831|  4.2534e-01|   -9.670782|   -4.499339|    0.006570|    0.009440|
|        1832|  4.2535e-01|   -9.671060|   -4.499377|    0.006570|    0.009442|
|        1833|  4.2533e-01|   -9.671335|   -4.499416|    0.006570|    0.009445|
|        1834|  4.2534e-01|   -9.671609|   -4.499456|    0.006570|    0.009447|
|        1835|  4.2534e-01|   -9.671881|   -4.499497|    0.006571|    0.009450|
|        1836|  4.2535e-01|   -9.672151|   -4.499538|    0.006571|    0.009452|
|        1837|  4.2535e-01|   -9.672421|   -4.499580|    0.006571|    0.009454|
|        1838|  4.2534e-01|   -9.672688|   -4.499622|    0.006571|    0.009456|
|        1839|  4.2533e-01|   -9.672955|   -4.499665|    0.006572|    0.009458|
|        1840|  4.2534e-01|   -9.673221|   -4.499708|    0.006572|    0.009460|
|        1841|  4.2534e-01|   -9.673487|   -4.499751|    0.006573|    0.009461|
|        1842|  4.2535e-01|   -9.673751|   -4.499794|    0.006573|    0.009463|
|        1843|  4.2534e-01|   -9.674016|   -4.499837|    0.006573|    0.009464|
|        1844|  4.2534e-01|   -9.674281|   -4.499880|    0.006574|    0.009464|
|        1845|  4.2535e-01|   -9.674545|   -4.499921|    0.006574|    0.009465|
|        1846|  4.2537e-01|   -9.674811|   -4.499963|    0.006575|    0.009465|
|        1847|  4.2537e-01|   -9.675076|   -4.500003|    0.006575|    0.009465|
|        1848|  4.2535e-01|   -9.675343|   -4.500043|    0.006576|    0.009465|
|        1849|  4.2534e-01|   -9.675610|   -4.500082|    0.006576|    0.009464|
|        1850|  4.2535e-01|   -9.675879|   -4.500121|    0.006576|    0.009463|
|        1851|  4.2535e-01|   -9.676149|   -4.500159|    0.006577|    0.009462|
|        1852|  4.2536e-01|   -9.676420|   -4.500196|    0.006577|    0.009461|
|        1853|  4.2534e-01|   -9.676693|   -4.500234|    0.006577|    0.009460|
|        1854|  4.2535e-01|   -9.676967|   -4.500270|    0.006578|    0.009458|
|        1855|  4.2535e-01|   -9.677244|   -4.500307|    0.006578|    0.009457|
|        1856|  4.2535e-01|   -9.677522|   -4.500344|    0.006578|    0.009455|
|        1857|  4.2534e-01|   -9.677802|   -4.500381|    0.006578|    0.009453|
|        1858|  4.2532e-01|   -9.678084|   -4.500418|    0.006578|    0.009451|
|        1859|  4.2534e-01|   -9.678367|   -4.500456|    0.006578|    0.009449|
|        1860|  4.2534e-01|   -9.678652|   -4.500494|    0.006578|    0.009447|
|        1861|  4.2535e-01|   -9.678939|   -4.500532|    0.006578|    0.009446|
|        1862|  4.2537e-01|   -9.679227|   -4.500570|    0.006578|    0.009444|
|        1863|  4.2535e-01|   -9.679517|   -4.500609|    0.006578|    0.009442|
|        1864|  4.2535e-01|   -9.679808|   -4.500648|    0.006578|    0.009441|
|        1865|  4.2535e-01|   -9.680100|   -4.500687|    0.006578|    0.009439|
|        1866|  4.2535e-01|   -9.680392|   -4.500726|    0.006577|    0.009438|
|        1867|  4.2535e-01|   -9.680685|   -4.500765|    0.006577|    0.009437|
|        1868|  4.2535e-01|   -9.680978|   -4.500804|    0.006577|    0.009436|
|        1869|  4.2533e-01|   -9.681272|   -4.500843|    0.006577|    0.009435|
|        1870|  4.2532e-01|   -9.681565|   -4.500881|    0.006576|    0.009435|
|        1871|  4.2533e-01|   -9.681858|   -4.500919|    0.006576|    0.009434|
|        1872|  4.2533e-01|   -9.682151|   -4.500957|    0.006576|    0.009434|
|        1873|  4.2532e-01|   -9.682443|   -4.500994|    0.006575|    0.009434|
|        1874|  4.2530e-01|   -9.682734|   -4.501031|    0.006575|    0.009435|
|        1875|  4.2530e-01|   -9.683024|   -4.501067|    0.006575|    0.009435|
|        1876|  4.2529e-01|   -9.683313|   -4.501103|    0.006575|    0.009436|
|        1877|  4.2528e-01|   -9.683601|   -4.501139|    0.006574|    0.009437|
|        1878|  4.2528e-01|   -9.683888|   -4.501174|    0.006574|    0.009438|
|        1879|  4.2529e-01|   -9.684174|   -4.501210|    0.006574|    0.009439|
|        1880|  4.2528e-01|   -9.684458|   -4.501245|    0.006574|    0.009441|
|        1881|  4.2528e-01|   -9.684741|   -4.501281|    0.006574|    0.009442|
|        1882|  4.2526e-01|   -9.685023|   -4.501316|    0.006574|    0.009444|
|        1883|  4.2526e-01|   -9.685304|   -4.501352|    0.006574|    0.009445|
|        1884|  4.2526e-01|   -9.685584|   -4.501389|    0.006574|    0.009447|
|        1885|  4.2527e-01|   -9.685862|   -4.501425|    0.006574|    0.009449|
|        1886|  4.2526e-01|   -9.686139|   -4.501462|    0.006574|    0.009450|
|        1887|  4.2524e-01|   -9.686416|   -4.501499|    0.006574|    0.009452|
|        1888|  4.2523e-01|   -9.686692|   -4.501537|    0.006574|    0.009454|
|        1889|  4.2523e-01|   -9.686967|   -4.501575|    0.006574|    0.009455|
|        1890|  4.2522e-01|   -9.687241|   -4.501614|    0.006575|    0.009457|
|        1891|  4.2522e-01|   -9.687515|   -4.501652|    0.006575|    0.009458|
|        1892|  4.2520e-01|   -9.687788|   -4.501691|    0.006575|    0.009459|
|        1893|  4.2520e-01|   -9.688062|   -4.501730|    0.006575|    0.009460|
|        1894|  4.2520e-01|   -9.688335|   -4.501769|    0.006576|    0.009461|
|        1895|  4.2518e-01|   -9.688608|   -4.501808|    0.006576|    0.009462|
|        1896|  4.2517e-01|   -9.688881|   -4.501847|    0.006576|    0.009463|
|        1897|  4.2516e-01|   -9.689154|   -4.501885|    0.006577|    0.009463|
|        1898|  4.2515e-01|   -9.689428|   -4.501924|    0.006577|    0.009463|
|        1899|  4.2515e-01|   -9.689702|   -4.501962|    0.006577|    0.009464|
|        1900|  4.2514e-01|   -9.689977|   -4.501999|    0.006578|    0.009463|
|        1901|  4.2514e-01|   -9.690252|   -4.502037|    0.006578|    0.009463|
|        1902|  4.2514e-01|   -9.690528|   -4.502074|    0.006578|    0.009463|
|        1903|  4.2515e-01|   -9.690805|   -4.502110|    0.006579|    0.009462|
|        1904|  4.2512e-01|   -9.691083|   -4.502147|    0.006579|    0.009462|
|        1905|  4.2512e-01|   -9.691362|   -4.502183|    0.006579|    0.009461|
|        1906|  4.2512e-01|   -9.691642|   -4.502219|    0.006579|    0.009460|
|        1907|  4.2512e-01|   -9.691922|   -4.502254|    0.006579|    0.009459|
|        1908|  4.2513e-01|   -9.692204|   -4.502290|    0.006580|    0.009458|
|        1909|  4.2513e-01|   -9.692487|   -4.502326|    0.006580|    0.009456|
|        1910|  4.2514e-01|   -9.692771|   -4.502361|    0.006580|    0.009455|
|        1911|  4.2514e-01|   -9.693056|   -4.502397|    0.006580|    0.009454|
|        1912|  4.2515e-01|   -9.693341|   -4.502433|    0.006580|    0.009453|
|        1913|  4.2514e-01|   -9.693628|   -4.502468|    0.006580|    0.009452|
|        1914|  4.2514e-01|   -9.693915|   -4.502504|    0.006580|    0.009450|
|        1915|  4.2514e-01|   -9.694203|   -4.502540|    0.006580|    0.009449|
|        1916|  4.2514e-01|   -9.694492|   -4.502576|    0.006580|    0.009448|
|        1917|  4.2511e-01|   -9.694781|   -4.502612|    0.006580|    0.009447|
|        1918|  4.2512e-01|   -9.695070|   -4.502647|    0.006579|    0.009446|
|        1919|  4.2513e-01|   -9.695360|   -4.502683|    0.006579|    0.009446|
|        1920|  4.2510e-01|   -9.695650|   -4.502719|    0.006579|    0.009445|
|        1921|  4.2509e-01|   -9.695940|   -4.502754|    0.006579|    0.009444|
|        1922|  4.2509e-01|   -9.696229|   -4.502790|    0.006579|    0.009444|
|        1923|  4.2508e-01|   -9.696519|   -4.502825|    0.006579|    0.009444|
|        1924|  4.2507e-01|   -9.696808|   -4.502860|    0.006578|    0.009444|
|        1925|  4.2508e-01|   -9.697097|   -4.502894|    0.006578|    0.009444|
|        1926|  4.2508e-01|   -9.697385|   -4.502929|    0.006578|    0.009444|
|        1927|  4.2508e-01|   -9.697673|   -4.502963|    0.006578|    0.009444|
|        1928|  4.2508e-01|   -9.697960|   -4.502997|    0.006578|    0.009445|
|        1929|  4.2507e-01|   -9.698246|   -4.503031|    0.006577|    0.009445|
|        1930|  4.2505e-01|   -9.698532|   -4.503065|    0.006577|    0.009446|
|        1931|  4.2506e-01|   -9.698817|   -4.503099|    0.006577|    0.009447|
|        1932|  4.2505e-01|   -9.699101|   -4.503133|    0.006577|    0.009448|
|        1933|  4.2505e-01|   -9.699385|   -4.503167|    0.006577|    0.009449|
|        1934|  4.2504e-01|   -9.699668|   -4.503200|    0.006577|    0.009450|
|        1935|  4.2503e-01|   -9.699950|   -4.503234|    0.006577|    0.009451|
|        1936|  4.2501e-01|   -9.700231|   -4.503269|    0.006577|    0.009452|
|        1937|  4.2499e-01|   -9.700513|   -4.503303|    0.006577|    0.009453|
|        1938|  4.2498e-01|   -9.700793|   -4.503338|    0.006577|    0.009454|
|        1939|  4.2497e-01|   -9.701073|   -4.503372|    0.006577|    0.009455|
|        1940|  4.2498e-01|   -9.701353|   -4.503407|    0.006577|    0.009457|
|        1941|  4.2498e-01|   -9.701632|   -4.503443|    0.006577|    0.009458|
|        1942|  4.2498e-01|   -9.701912|   -4.503478|    0.006578|    0.009459|
|        1943|  4.2498e-01|   -9.702191|   -4.503513|    0.006578|    0.009460|
|        1944|  4.2497e-01|   -9.702469|   -4.503549|    0.006578|    0.009461|
|        1945|  4.2496e-01|   -9.702748|   -4.503585|    0.006578|    0.009461|
|        1946|  4.2496e-01|   -9.703027|   -4.503621|    0.006578|    0.009462|
|        1947|  4.2495e-01|   -9.703306|   -4.503656|    0.006579|    0.009463|
|        1948|  4.2494e-01|   -9.703585|   -4.503692|    0.006579|    0.009463|
|        1949|  4.2493e-01|   -9.703865|   -4.503728|    0.006579|    0.009464|
|        1950|  4.2493e-01|   -9.704145|   -4.503764|    0.006579|    0.009464|
|        1951|  4.2493e-01|   -9.704425|   -4.503799|    0.006580|    0.009464|
|        1952|  4.2493e-01|   -9.704705|   -4.503834|    0.006580|    0.009464|
|        1953|  4.2493e-01|   -9.704986|   -4.503869|    0.006580|    0.009464|
|        1954|  4.2491e-01|   -9.705268|   -4.503904|    0.006580|    0.009464|
|        1955|  4.2488e-01|   -9.705550|   -4.503939|    0.006580|    0.009463|
|        1956|  4.2487e-01|   -9.705832|   -4.503974|    0.006581|    0.009463|
|        1957|  4.2485e-01|   -9.706115|   -4.504008|    0.006581|    0.009463|
|        1958|  4.2485e-01|   -9.706399|   -4.504042|    0.006581|    0.009462|
|        1959|  4.2487e-01|   -9.706684|   -4.504076|    0.006581|    0.009461|
|        1960|  4.2488e-01|   -9.706968|   -4.504110|    0.006581|    0.009461|
|        1961|  4.2487e-01|   -9.707254|   -4.504144|    0.006581|    0.009460|
|        1962|  4.2487e-01|   -9.707540|   -4.504178|    0.006581|    0.009459|
|        1963|  4.2487e-01|   -9.707826|   -4.504212|    0.006581|    0.009458|
|        1964|  4.2489e-01|   -9.708113|   -4.504245|    0.006582|    0.009458|
|        1965|  4.2489e-01|   -9.708401|   -4.504279|    0.006582|    0.009457|
|        1966|  4.2491e-01|   -9.708689|   -4.504313|    0.006582|    0.009456|
|        1967|  4.2492e-01|   -9.708977|   -4.504346|    0.006582|    0.009455|
|        1968|  4.2492e-01|   -9.709265|   -4.504380|    0.006581|    0.009454|
|        1969|  4.2492e-01|   -9.709554|   -4.504413|    0.006581|    0.009454|
|        1970|  4.2493e-01|   -9.709843|   -4.504446|    0.006581|    0.009453|
|        1971|  4.2493e-01|   -9.710132|   -4.504480|    0.006581|    0.009453|
|        1972|  4.2494e-01|   -9.710420|   -4.504513|    0.006581|    0.009452|
|        1973|  4.2494e-01|   -9.710709|   -4.504546|    0.006581|    0.009452|
|        1974|  4.2495e-01|   -9.710998|   -4.504579|    0.006581|    0.009452|
|        1975|  4.2497e-01|   -9.711286|   -4.504611|    0.006581|    0.009451|
|        1976|  4.2496e-01|   -9.711575|   -4.504644|    0.006581|    0.009451|
|        1977|  4.2497e-01|   -9.711862|   -4.504677|    0.006581|    0.009451|
|        1978|  4.2498e-01|   -9.712150|   -4.504709|    0.006581|    0.009451|
|        1979|  4.2500e-01|   -9.712437|   -4.504741|    0.006580|    0.009452|
|        1980|  4.2500e-01|   -9.712724|   -4.504774|    0.006580|    0.009452|
|        1981|  4.2498e-01|   -9.713011|   -4.504806|    0.006580|    0.009452|
|        1982|  4.2497e-01|   -9.713297|   -4.504838|    0.006580|    0.009453|
|        1983|  4.2497e-01|   -9.713582|   -4.504870|    0.006580|    0.009453|
|        1984|  4.2499e-01|   -9.713868|   -4.504902|    0.006580|    0.009454|
|        1985|  4.2499e-01|   -9.714153|   -4.504934|    0.006580|    0.009455|
|        1986|  4.2501e-01|   -9.714437|   -4.504966|    0.006580|    0.009455|
|        1987|  4.2501e-01|   -9.714722|   -4.504998|    0.006580|    0.009456|
|        1988|  4.2499e-01|   -9.715006|   -4.505030|    0.006580|    0.009457|
|        1989|  4.2500e-01|   -9.715289|   -4.505063|    0.006580|    0.009458|
|        1990|  4.2501e-01|   -9.715573|   -4.505095|    0.006580|    0.009458|
|        1991|  4.2501e-01|   -9.715856|   -4.505128|    0.006580|    0.009459|
|        1992|  4.2502e-01|   -9.716139|   -4.505160|    0.006580|    0.009460|
|        1993|  4.2500e-01|   -9.716423|   -4.505193|    0.006580|    0.009461|
|        1994|  4.2500e-01|   -9.716706|   -4.505226|    0.006580|    0.009461|
|        1995|  4.2498e-01|   -9.716989|   -4.505259|    0.006580|    0.009462|
|        1996|  4.2499e-01|   -9.717272|   -4.505292|    0.006581|    0.009463|
|        1997|  4.2500e-01|   -9.717555|   -4.505325|    0.006581|    0.009463|
|        1998|  4.2502e-01|   -9.717839|   -4.505358|    0.006581|    0.009464|
|        1999|  4.2502e-01|   -9.718122|   -4.505392|    0.006581|    0.009464|

----------------------------- Solver Exit -------------------------------

Maximum number of iterations reached (ITER = 2000) before convergence.
+-----------------------------------------------------------------------+
|      Convergence Field     |     Value    |   Criterion  |  Converged |
+-----------------------------------------------------------------------+
|                    rms[Rho]|      -9.71812|         < -12|          No|
+-----------------------------------------------------------------------+
-------------------------------------------------------------------------
+-----------------------------------------------------------------------+
|        File Writing Summary       |              Filename             |
+-----------------------------------------------------------------------+
|SU2 binary restart                 |restart_flow_amgx.dat              |
|Paraview                           |flow_amgx.vtu                      |
+-----------------------------------------------------------------------+

--------------------------- Finalizing Solver ---------------------------
Deleted CNumerics container.
Deleted CIntegration container.
Deleted CSolver container.
Deleted CIteration container.
Deleted CInterface container.
Deleted CGeometry container.
Deleted CFreeFormDefBox class.
Deleted CSurfaceMovement class.
Deleted CVolumetricMovement class.
Deleted CConfig container.
Deleted nInst container.
Deleted COutput class.
-------------------------------------------------------------------------

------------------------- Exit Success (SU2_CFD) ------------------------

AMGX elapsed: 14:18.91
