
-------------------------------------------------------------------------
|    ___ _   _ ___                                                      |
|   / __| | | |_  )   Release 8.3.0 "Harrier"                           |
|   \__ \ |_| |/ /                                                      |
|   |___/\___//___|   Suite (Computational Fluid Dynamics Code)         |
|                                                                       |
-------------------------------------------------------------------------
| SU2 Project Website: https://su2code.github.io                        |
|                                                                       |
| The SU2 Project is maintained by the SU2 Foundation                   |
| (http://su2foundation.org)                                            |
-------------------------------------------------------------------------
| Copyright 2012-2025, SU2 Contributors                                 |
|                                                                       |
| SU2 is free software; you can redistribute it and/or                  |
| modify it under the terms of the GNU Lesser General Public            |
| License as published by the Free Software Foundation; either          |
| version 2.1 of the License, or (at your option) any later version.    |
|                                                                       |
| SU2 is distributed in the hope that it will be useful,                |
| but WITHOUT ANY WARRANTY; without even the implied warranty of        |
| MERCHANTABILITY or FITNESS FOR A PARTICULAR PURPOSE. See the GNU      |
| Lesser General Public License for more details.                       |
|                                                                       |
| You should have received a copy of the GNU Lesser General Public      |
| License along with SU2. If not, see <http://www.gnu.org/licenses/>.   |
-------------------------------------------------------------------------

Parsing config file for zone 0

----------------- Physical Case Definition ( Zone 0 ) -------------------
Compressible Laminar Navier-Stokes' equations.
Mach number: 0.05.
Angle of attack (AoA): 0 deg, and angle of sideslip (AoS): 0 deg.
Reynolds number: 1000. Reference length 1.
Performing a dynamic mesh simulation: no direct movement.
No restart solution, use the values at infinity (freestream).
Dimensional simulation.
The reference area is 1 m^2.
The semi-span will be computed using the max y(3D) value.
The reference length is 1 m.
Surface(s) where the force coefficients are evaluated and 
their reference origin for moment computation: 
   - y_plus (0.25, 0, 0).
   - x_minus (0.25, 0, 0).
   - x_plus (0.25, 0, 0).
   - y_minus (0.25, 0, 0) m.
Surface(s) plotted in the output file: y_plus, x_minus, x_plus, y_minus.
Surface(s) in motion: y_plus.
Input mesh file name: mesh.su2

--------------- Space Numerical Integration ( Zone 0 ) ------------------
Roe (with entropy fix = 0.001) solver for the flow inviscid terms.
Standard Roe without low-dissipation function.
Second order integration in space, with slope limiter.
No slope-limiting method. 
Average of gradients with correction (viscous flow terms).
Gradient for upwind reconstruction: inverse-distance weighted Least-Squares.
Gradient for viscous and source terms: inverse-distance weighted Least-Squares.

--------------- Time Numerical Integration  ( Zone 0 ) ------------------
Local time stepping (steady state simulation).
Euler implicit method for the flow equations.
BCGSTAB is used for solving the linear system.
Using a Jacobi preconditioning.
Convergence criteria of the linear solver: 1e-06.
Max number of linear iterations: 50.
No CFL adaptation.
Courant-Friedrichs-Lewy number:       20

------------------ Convergence Criteria  ( Zone 0 ) ---------------------
Maximum number of solver subiterations: 2000.
Begin convergence monitoring at iteration 10.
Residual minimum value: 1e-12.
Cauchy series min. value: 1e-12.
Number of Cauchy elements: 100.
Begin windowed time average at iteration 0.

-------------------- Output Information ( Zone 0 ) ----------------------
File writing frequency: 
+------------------------------------+
|                     File| Frequency|
+------------------------------------+
|                  RESTART|      2000|
|                 PARAVIEW|      2000|
+------------------------------------+
Writing the convergence history file every 1 inner iterations.
Writing the screen convergence history every 1 inner iterations.
The tabular file format is CSV (.csv).
Convergence history file name: history_cpu.
Forces breakdown file name: forces_breakdown.dat.
Surface file name: surface_flow_cpu.
Volume file name: flow_cpu.
Restart file name: restart_flow_cpu.

------------- Config File Boundary Information ( Zone 0 ) ---------------
+-----------------------------------------------------------------------+
|                        Marker Type|                        Marker Name|
+-----------------------------------------------------------------------+
|                     Heat flux wall|                             y_plus|
|                                   |                            x_minus|
|                                   |                             x_plus|
|                                   |                            y_minus|
+-----------------------------------------------------------------------+

-------------------- Output Preprocessing ( Zone 0 ) --------------------

WARNING: SURFACE_PRESSURE_DROP can only be computed for at least 2 surfaces (outlet, inlet, ...)

Screen output fields: INNER_ITER, WALL_TIME, RMS_DENSITY, RMS_ENERGY, LIFT, DRAG
History output group(s): ITER, RMS_RES
Convergence field(s): RMS_DENSITY
Warning: No (valid) fields chosen for time convergence monitoring. Time convergence monitoring inactive.
Volume output fields: COORDINATES, SOLUTION, PRIMITIVE, GRID_VELOCITY

------------------- Geometry Preprocessing ( Zone 0 ) -------------------
Two dimensional problem.
16641 grid points.
16384 volume elements.
4 surface markers.
128 boundary elements in index 0 (Marker = y_minus).
128 boundary elements in index 1 (Marker = x_plus).
128 boundary elements in index 2 (Marker = y_plus).
128 boundary elements in index 3 (Marker = x_minus).
16384 quadrilaterals.
Setting point connectivity.
Renumbering points (Reverse Cuthill McKee Ordering).
Recomputing point connectivity.
Setting element connectivity.
Checking the numerical grid orientation.
All volume elements are correctly oriented.
All surface elements are correctly oriented.
Identifying edges and vertices.
Setting the control volume structure.
Area of the computational grid: 1.
Searching for the closest normal neighbors to the surfaces.
Storing a mapping from global to local point index.
Compute the surface curvature.
Max K: 181.019. Mean K: 2.8065. Standard deviation K: 22.3641.
Checking for periodicity.
Computing mesh quality statistics for the dual control volumes.
+--------------------------------------------------------------+
|           Mesh Quality Metric|        Minimum|        Maximum|
+--------------------------------------------------------------+
|    Orthogonality Angle (deg.)|             90|             90|
|     CV Face Area Aspect Ratio|              1|              2|
|           CV Sub-Volume Ratio|              1|              1|
+--------------------------------------------------------------+
Finding max control volume width.
Wetted area = 4 m.
Area projection in the x-plane = 1 m, y-plane = 1 m.
Max. coordinate in the x-direction = 1 m, y-direction = 1 m.
Min. coordinate in the x-direction = 0 m, y-direction = 0 m.
Computing wall distances.

-------------------- Solver Preprocessing ( Zone 0 ) --------------------
Viscous flow: Computing pressure using the ideal gas law
based on the free-stream temperature and a density computed
from the Reynolds number.
Force coefficients computed using MACH_MOTION.

-- Models:
+------------------------------------------------------------------------------+
|          Viscosity Model|        Conductivity Model|              Fluid Model|
+------------------------------------------------------------------------------+
|               SUTHERLAND|          CONSTANT_PRANDTL|             STANDARD_AIR|
+------------------------------------------------------------------------------+
-- Fluid properties:
+------------------------------------------------------------------------------+
|                  Name|    Dim. value|    Ref. value|      Unit|Non-dim. value|
+------------------------------------------------------------------------------+
|        Ref. Viscosity|     1.716e-05|             1|   N.s/m^2|     1.716e-05|
|      Sutherland Temp.|        273.15|             1|         K|        273.15|
|     Sutherland Const.|         110.4|             1|         K|         110.4|
+------------------------------------------------------------------------------+
|        Prandtl (Lam.)|             -|             -|         -|          0.72|
|       Prandtl (Turb.)|             -|             -|         -|           0.9|
+------------------------------------------------------------------------------+
|          Gas Constant|       287.058|             1|  N.m/kg.K|       287.058|
|      Spec. Heat Ratio|             -|             -|         -|           1.4|
+------------------------------------------------------------------------------+
-- Initial and free-stream conditions:
+------------------------------------------------------------------------------+
|                  Name|    Dim. value|    Ref. value|      Unit|Non-dim. value|
+------------------------------------------------------------------------------+
|       Static Pressure|       43.4923|             1|        Pa|       43.4923|
|               Density|   0.000525805|             1|    kg/m^3|   0.000525805|
|           Temperature|        288.15|             1|         K|        288.15|
|          Total Energy|        206934|             1|   m^2/s^2|        206934|
|            Velocity-X|       17.0149|             1|       m/s|       17.0149|
|            Velocity-Y|             0|             1|       m/s|             0|
|    Velocity Magnitude|       17.0149|             1|       m/s|       17.0149|
+------------------------------------------------------------------------------+
|             Viscosity|    1.7893e-05|             1|   N.s/m^2|    1.7893e-05|
|          Conductivity|             -|             1|   W/m^2.K|             -|
+------------------------------------------------------------------------------+
|           Mach Number|             -|             -|         -|          0.05|
|       Reynolds Number|             -|             -|         -|          1000|
+------------------------------------------------------------------------------+
Initialize Jacobian structure (Navier-Stokes). MG level: 0.

------------------- Numerics Preprocessing ( Zone 0 ) -------------------

----------------- Integration Preprocessing ( Zone 0 ) ------------------

------------------- Iteration Preprocessing ( Zone 0 ) ------------------
Euler/Navier-Stokes/RANS fluid iteration.
Setting dynamic mesh structure for zone 1.

 Setting the moving wall velocities.
 Storing grid velocity for marker: y_plus.
 Translational velocity: (33.179, 0, 0) m/s.
 Angular velocity: (0, 0, 0) rad/s about origin: (0, 0, 0).

------------------------------ Begin Solver -----------------------------

Simulation Run using the Single-zone Driver
 Storing grid velocity for marker: y_plus.
 Translational velocity: (33.179, 0, 0) m/s.
 Angular velocity: (0, 0, 0) rad/s about origin: (0, 0, 0).
WARNING: SU2 was not compiled for an AVX-capable architecture. Performance could be better,
         see https://su2code.github.io/docs_v7/Build-SU2-Linux-MacOS/#compiler-optimizations
+-----------------------------------------------------------------------------+
|  Inner_Iter|   Time(sec)|    rms[Rho]|   rms[RhoE]|          CL|          CD|
+-----------------------------------------------------------------------------+
|           0|  1.8808e+00|   -5.062919|    0.398955|   -0.382065|   30.596821|
|           1|  1.7872e+00|   -5.387588|    0.076576|   -0.241942|   32.364366|
|           2|  1.7247e+00|   -5.500042|   -0.034505|   -0.098818|   26.290268|
|           3|  1.7754e+00|   -5.579503|   -0.116687|   -0.021256|   21.445880|
|           4|  1.7661e+00|   -5.735040|   -0.273634|    0.002098|   19.660616|
|           5|  1.7241e+00|   -5.812315|   -0.350696|    0.002725|   19.546119|
|           6|  1.7014e+00|   -5.846139|   -0.384214|    0.000052|   19.768695|
|           7|  1.7089e+00|   -5.872869|   -0.410913|   -0.000680|   19.866477|
|           8|  1.6866e+00|   -5.899732|   -0.437853|   -0.000199|   19.857900|
|           9|  1.6936e+00|   -5.935833|   -0.474037|    0.000388|   19.828651|
|          10|  1.7101e+00|   -5.992038|   -0.530352|    0.000834|   19.805017|
|          11|  1.7136e+00|   -6.083656|   -0.622141|    0.001258|   19.775900|
|          12|  1.7020e+00|   -6.235892|   -0.774595|    0.001733|   19.723740|
|          13|  1.7042e+00|   -6.497472|   -1.035953|    0.002260|   19.629997|
|          14|  1.7133e+00|   -6.704667|   -1.238896|    0.002860|   19.469553|
|          15|  1.7173e+00|   -6.411314|   -0.947630|    0.003558|   19.206961|
|          16|  1.7147e+00|   -6.216811|   -0.754127|    0.004367|   18.796545|
|          17|  1.7049e+00|   -6.108516|   -0.646191|    0.005343|   18.185054|
|          18|  1.7140e+00|   -6.046814|   -0.584633|    0.006553|   17.316352|
|          19|  1.7168e+00|   -6.010873|   -0.548753|    0.008057|   16.138169|
|          20|  1.7049e+00|   -5.987605|   -0.525523|    0.009888|   14.610378|
|          21|  1.6940e+00|   -5.968647|   -0.506613|    0.012044|   12.713415|
|          22|  1.6838e+00|   -5.949953|   -0.487985|    0.014481|   10.455120|
|          23|  1.6736e+00|   -5.931220|   -0.469318|    0.017110|    7.874303|
|          24|  1.6650e+00|   -5.914408|   -0.452548|    0.019803|    5.039880|
|          25|  1.6560e+00|   -5.902096|   -0.440241|    0.022406|    2.045303|
|          26|  1.6604e+00|   -5.896430|   -0.434544|    0.024754|   -1.000918|
|          27|  1.6656e+00|   -5.898743|   -0.436809|    0.026691|   -3.986896|
|          28|  1.6671e+00|   -5.909550|   -0.447574|    0.028085|   -6.809055|
|          29|  1.6767e+00|   -5.928701|   -0.466712|    0.028850|   -9.381797|
|          30|  1.6786e+00|   -5.955618|   -0.493659|    0.028950|  -11.643722|
|          31|  1.6852e+00|   -5.989613|   -0.527728|    0.028406|  -13.559845|
|          32|  1.6879e+00|   -6.030313|   -0.568539|    0.027288|  -15.120103|
|          33|  1.6941e+00|   -6.078154|   -0.616516|    0.025701|  -16.335000|
|          34|  1.7002e+00|   -6.134884|   -0.673404|    0.023771|  -17.229545|
|          35|  1.7035e+00|   -6.204095|   -0.742799|    0.021614|  -17.836643|
|          36|  1.7067e+00|   -6.292041|   -0.830972|    0.019333|  -18.190930|
|          37|  1.7087e+00|   -6.409548|   -0.948768|    0.016994|  -18.323799|
|          38|  1.7141e+00|   -6.576698|   -1.116202|    0.014641|  -18.259996|
|          39|  1.7195e+00|   -6.822933|   -1.361475|    0.012299|  -18.015948|
|          40|  1.7225e+00|   -6.940651|   -1.472509|    0.009934|  -17.599752|
|          41|  1.7275e+00|   -6.684596|   -1.218848|    0.007573|  -17.012455|
|          42|  1.7245e+00|   -6.483377|   -1.019409|    0.005220|  -16.250213|
|          43|  1.7190e+00|   -6.347454|   -0.884316|    0.002869|  -15.306991|
|          44|  1.7114e+00|   -6.250319|   -0.787652|    0.000510|  -14.177411|
|          45|  1.7035e+00|   -6.178032|   -0.715669|   -0.001864|  -12.859413|
|          46|  1.6978e+00|   -6.122975|   -0.660820|   -0.004251|  -11.356482|
|          47|  1.6937e+00|   -6.080635|   -0.618625|   -0.006632|   -9.679211|
|          48|  1.6874e+00|   -6.048217|   -0.586302|   -0.008976|   -7.846102|
|          49|  1.6847e+00|   -6.023984|   -0.562123|   -0.011240|   -5.883516|
|          50|  1.6791e+00|   -6.006900|   -0.545054|   -0.013372|   -3.824807|
|          51|  1.6757e+00|   -5.996394|   -0.534533|   -0.015312|   -1.708751|
|          52|  1.6703e+00|   -5.992207|   -0.530310|   -0.017003|    0.422537|
|          53|  1.6671e+00|   -5.994282|   -0.532341|   -0.018391|    2.525927|
|          54|  1.6617e+00|   -6.002698|   -0.540717|   -0.019430|    4.559591|
|          55|  1.6580e+00|   -6.017644|   -0.555642|   -0.020085|    6.485029|
|          56|  1.6535e+00|   -6.039436|   -0.577444|   -0.020335|    8.268647|
|          57|  1.6550e+00|   -6.068570|   -0.606630|   -0.020173|    9.882766|
|          58|  1.6572e+00|   -6.105818|   -0.643980|   -0.019605|   11.306047|
|          59|  1.6574e+00|   -6.152390|   -0.690711|   -0.018648|   12.523379|
|          60|  1.6579e+00|   -6.210198|   -0.748744|   -0.017330|   13.525347|
|          61|  1.6590e+00|   -6.282329|   -0.821181|   -0.015683|   14.307404|
|          62|  1.6594e+00|   -6.373977|   -0.913248|   -0.013742|   14.868895|
|          63|  1.6603e+00|   -6.494491|   -1.034358|   -0.011538|   15.212071|
|          64|  1.6619e+00|   -6.662106|   -1.202879|   -0.009112|   15.341203|
|          65|  1.6590e+00|   -6.907812|   -1.449532|   -0.006502|   15.261890|
|          66|  1.6610e+00|   -7.072863|   -1.608152|   -0.003760|   14.980692|
|          67|  1.6628e+00|   -6.823366|   -1.357659|   -0.000933|   14.504996|
|          68|  1.6627e+00|   -6.612084|   -1.147951|    0.001941|   13.843061|
|          69|  1.6630e+00|   -6.468793|   -1.005546|    0.004820|   13.004210|
|          70|  1.6621e+00|   -6.365398|   -0.902685|    0.007670|   11.999176|
|          71|  1.6626e+00|   -6.287387|   -0.825023|    0.010459|   10.840510|
|          72|  1.6590e+00|   -6.227119|   -0.764989|    0.013167|    9.542958|
|          73|  1.6581e+00|   -6.180210|   -0.718235|    0.015776|    8.123723|
|          74|  1.6582e+00|   -6.143974|   -0.682093|    0.018261|    6.602568|
|          75|  1.6576e+00|   -6.116691|   -0.654856|    0.020594|    5.001691|
|          76|  1.6582e+00|   -6.097234|   -0.635410|    0.022744|    3.345378|
|          77|  1.6576e+00|   -6.084873|   -0.623031|    0.024678|    1.659467|
|          78|  1.6581e+00|   -6.079149|   -0.617274|    0.026364|   -0.029354|
|          79|  1.6573e+00|   -6.079814|   -0.617899|    0.027772|   -1.694327|
|          80|  1.6590e+00|   -6.086792|   -0.624840|    0.028875|   -3.309411|
|          81|  1.6616e+00|   -6.100169|   -0.638196|    0.029647|   -4.850016|
|          82|  1.6604e+00|   -6.120207|   -0.658235|    0.030071|   -6.293614|
|          83|  1.6599e+00|   -6.147373|   -0.685435|    0.030135|   -7.620201|
|          84|  1.6596e+00|   -6.182415|   -0.720552|    0.029832|   -8.812589|
|          85|  1.6586e+00|   -6.226478|   -0.764738|    0.029167|   -9.856530|
|          86|  1.6585e+00|   -6.281315|   -0.819758|    0.028148|  -10.740707|
|          87|  1.6599e+00|   -6.349678|   -0.888377|    0.026783|  -11.456609|
|          88|  1.6594e+00|   -6.436075|   -0.975134|    0.025091|  -11.998340|
|          89|  1.6602e+00|   -6.548402|   -1.087979|    0.023107|  -12.362402|
|          90|  1.6591e+00|   -6.701629|   -1.241999|    0.020862|  -12.547480|
|          91|  1.6608e+00|   -6.923167|   -1.464639|    0.018375|  -12.554261|
|          92|  1.6629e+00|   -7.154160|   -1.692326|    0.015678|  -12.385332|
|          93|  1.6639e+00|   -6.971831|   -1.506023|    0.012793|  -12.045178|
|          94|  1.6655e+00|   -6.743109|   -1.278748|    0.009779|  -11.540265|
|          95|  1.6660e+00|   -6.587374|   -1.123949|    0.006701|  -10.879072|
|          96|  1.6669e+00|   -6.476154|   -1.013290|    0.003621|  -10.072125|
|          97|  1.6679e+00|   -6.392752|   -0.930250|    0.000600|   -9.132007|
|          98|  1.6694e+00|   -6.328463|   -0.866203|   -0.002314|   -8.073292|
|          99|  1.6710e+00|   -6.278378|   -0.816278|   -0.005084|   -6.912403|
|         100|  1.6680e+00|   -6.239529|   -0.777529|   -0.007685|   -5.667396|
|         101|  1.6649e+00|   -6.210028|   -0.748083|   -0.010095|   -4.357654|
|         102|  1.6614e+00|   -6.188641|   -0.726714|   -0.012294|   -3.003531|
|         103|  1.6596e+00|   -6.174553|   -0.712620|   -0.014257|   -1.625938|
|         104|  1.6581e+00|   -6.167241|   -0.705285|   -0.015960|   -0.245914|
|         105|  1.6552e+00|   -6.166402|   -0.704416|   -0.017377|    1.115822|
|         106|  1.6521e+00|   -6.171912|   -0.709898|   -0.018481|    2.439290|
|         107|  1.6488e+00|   -6.183817|   -0.721783|   -0.019252|    3.705626|
|         108|  1.6465e+00|   -6.202336|   -0.740299|   -0.019671|    4.897403|
|         109|  1.6434e+00|   -6.227895|   -0.765878|   -0.019726|    5.998876|
|         110|  1.6401e+00|   -6.261185|   -0.799217|   -0.019411|    6.996150|
|         111|  1.6364e+00|   -6.303272|   -0.841389|   -0.018725|    7.877280|
|         112|  1.6336e+00|   -6.355783|   -0.894029|   -0.017676|    8.632301|
|         113|  1.6313e+00|   -6.421258|   -0.959689|   -0.016275|    9.253223|
|         114|  1.6292e+00|   -6.503826|   -1.042518|   -0.014542|    9.733984|
|         115|  1.6257e+00|   -6.610663|   -1.149736|   -0.012499|   10.070397|
|         116|  1.6235e+00|   -6.755381|   -1.295059|   -0.010170|   10.260100|
|         117|  1.6207e+00|   -6.965301|   -1.506029|   -0.007596|   10.302518|
|         118|  1.6191e+00|   -7.240342|   -1.780976|   -0.004817|   10.198876|
|         119|  1.6175e+00|   -7.127253|   -1.662811|   -0.001891|    9.952246|
|         120|  1.6151e+00|   -6.873385|   -1.409650|    0.001134|    9.567591|
|         121|  1.6135e+00|   -6.703198|   -1.240151|    0.004206|    9.051743|
|         122|  1.6104e+00|   -6.583963|   -1.121341|    0.007274|    8.413373|
|         123|  1.6083e+00|   -6.495502|   -1.033158|    0.010297|    7.662923|
|         124|  1.6056e+00|   -6.427678|   -0.965523|    0.013236|    6.812500|
|         125|  1.6062e+00|   -6.374929|   -0.912899|    0.016048|    5.875713|
|         126|  1.6061e+00|   -6.333946|   -0.871997|    0.018702|    4.867462|
|         127|  1.6066e+00|   -6.302648|   -0.840743|    0.021167|    3.803675|
|         128|  1.6076e+00|   -6.279678|   -0.817791|    0.023414|    2.701006|
|         129|  1.6070e+00|   -6.264140|   -0.802251|    0.025417|    1.576500|
|         130|  1.6058e+00|   -6.255454|   -0.793551|    0.027148|    0.447256|
|         131|  1.6051e+00|   -6.253271|   -0.791348|    0.028582|   -0.669911|
|         132|  1.6029e+00|   -6.257433|   -0.795489|    0.029700|   -1.758780|
|         133|  1.6006e+00|   -6.267950|   -0.805992|    0.030481|   -2.803997|
|         134|  1.5984e+00|   -6.285010|   -0.823049|    0.030912|   -3.791306|
|         135|  1.5970e+00|   -6.308997|   -0.847051|    0.030983|   -4.707729|
|         136|  1.5953e+00|   -6.340550|   -0.878642|    0.030690|   -5.541690|
|         137|  1.5953e+00|   -6.380659|   -0.918816|    0.030032|   -6.283107|
|         138|  1.5950e+00|   -6.430832|   -0.969087|    0.029013|   -6.923430|
|         139|  1.5962e+00|   -6.493408|   -1.031806|    0.027640|   -7.455659|
|         140|  1.5949e+00|   -6.572166|   -1.110766|    0.025933|   -7.874341|
|         141|  1.5935e+00|   -6.673615|   -1.212510|    0.023916|   -8.175555|
|         142|  1.5921e+00|   -6.810070|   -1.349425|    0.021620|   -8.356902|
|         143|  1.5904e+00|   -7.007518|   -1.547671|    0.019075|   -8.417489|
|         144|  1.5892e+00|   -7.304107|   -1.844847|    0.016317|   -8.357923|
|         145|  1.5882e+00|   -7.302972|   -1.837972|    0.013379|   -8.180340|
|         146|  1.5869e+00|   -7.013595|   -1.549494|    0.010309|   -7.888435|
|         147|  1.5851e+00|   -6.823623|   -1.360353|    0.007156|   -7.487484|
|         148|  1.5839e+00|   -6.694261|   -1.231451|    0.003977|   -6.984312|
|         149|  1.5825e+00|   -6.599755|   -1.137228|    0.000832|   -6.387252|
|         150|  1.5827e+00|   -6.527891|   -1.065553|   -0.002219|   -5.706043|
|         151|  1.5805e+00|   -6.472210|   -1.009998|   -0.005119|   -4.951698|
|         152|  1.5782e+00|   -6.428955|   -0.966826|   -0.007821|   -4.136321|
|         153|  1.5760e+00|   -6.395799|   -0.933722|   -0.010288|   -3.272878|
|         154|  1.5740e+00|   -6.371236|   -0.909186|   -0.012493|   -2.374946|
|         155|  1.5719e+00|   -6.354275|   -0.892234|   -0.014413|   -1.456435|
|         156|  1.5705e+00|   -6.344270|   -0.882225|   -0.016033|   -0.531324|
|         157|  1.5696e+00|   -6.340826|   -0.878771|   -0.017336|    0.386608|
|         158|  1.5702e+00|   -6.343750|   -0.881681|   -0.018307|    1.284017|
|         159|  1.5703e+00|   -6.353022|   -0.890942|   -0.018933|    2.148209|
|         160|  1.5703e+00|   -6.368802|   -0.906718|   -0.019205|    2.967323|
|         161|  1.5698e+00|   -6.391447|   -0.929368|   -0.019117|    3.730476|
|         162|  1.5688e+00|   -6.421559|   -0.959499|   -0.018666|    4.427881|
|         163|  1.5674e+00|   -6.460077|   -0.998052|   -0.017856|    5.050927|
|         164|  1.5655e+00|   -6.508433|   -1.046464|   -0.016696|    5.592240|
|         165|  1.5637e+00|   -6.568843|   -1.106957|   -0.015201|    6.045706|
|         166|  1.5612e+00|   -6.644873|   -1.183103|   -0.013391|    6.406496|
|         167|  1.5592e+00|   -6.742642|   -1.281042|   -0.011291|    6.671071|
|         168|  1.5588e+00|   -6.873740|   -1.412406|   -0.008928|    6.837182|
|         169|  1.5590e+00|   -7.063423|   -1.602588|   -0.006337|    6.903874|
|         170|  1.5597e+00|   -7.369320|   -1.909592|   -0.003559|    6.871493|
|         171|  1.5606e+00|   -7.487651|   -2.024931|   -0.000641|    6.741714|
|         172|  1.5607e+00|   -7.151033|   -1.688035|    0.002370|    6.517551|
|         173|  1.5604e+00|   -6.940021|   -1.477435|    0.005425|    6.203324|
|         174|  1.5588e+00|   -6.801148|   -1.338806|    0.008478|    5.804618|
|         175|  1.5569e+00|   -6.701298|   -1.239114|    0.011482|    5.328216|
|         176|  1.5555e+00|   -6.625982|   -1.163904|    0.014394|    4.782006|
|         177|  1.5546e+00|   -6.567840|   -1.105836|    0.017173|    4.174866|
|         178|  1.5541e+00|   -6.522697|   -1.060742|    0.019782|    3.516518|
|         179|  1.5536e+00|   -6.487997|   -1.026072|    0.022185|    2.817361|
|         180|  1.5537e+00|   -6.462101|   -1.000191|    0.024349|    2.088290|
|         181|  1.5532e+00|   -6.443930|   -0.982026|    0.026246|    1.340492|
|         182|  1.5531e+00|   -6.432781|   -0.970875|    0.027850|    0.585249|
|         183|  1.5509e+00|   -6.428217|   -0.966305|    0.029137|   -0.166262|
|         184|  1.5509e+00|   -6.430008|   -0.968090|    0.030090|   -0.903160|
|         185|  1.5515e+00|   -6.438108|   -0.976187|    0.030692|   -1.615026|
|         186|  1.5516e+00|   -6.452647|   -0.990728|    0.030933|   -2.292058|
|         187|  1.5516e+00|   -6.473949|   -1.012041|    0.030808|   -2.925197|
|         188|  1.5515e+00|   -6.502572|   -1.040687|    0.030316|   -3.506226|
|         189|  1.5503e+00|   -6.539394|   -1.077549|    0.029462|   -4.027855|
|         190|  1.5485e+00|   -6.585753|   -1.123967|    0.028256|   -4.483778|
|         191|  1.5477e+00|   -6.643710|   -1.182008|    0.026716|   -4.868713|
|         192|  1.5469e+00|   -6.716554|   -1.254972|    0.024864|   -5.178432|
|         193|  1.5452e+00|   -6.809875|   -1.348470|    0.022727|   -5.409781|
|         194|  1.5434e+00|   -6.934139|   -1.473015|    0.020337|   -5.560685|
|         195|  1.5418e+00|   -7.112064|   -1.651455|    0.017730|   -5.630160|
|         196|  1.5419e+00|   -7.403130|   -1.943659|    0.014944|   -5.618306|
|         197|  1.5429e+00|   -7.685224|   -2.221511|    0.012019|   -5.526307|
|         198|  1.5433e+00|   -7.302706|   -1.838623|    0.008997|   -5.356439|
|         199|  1.5421e+00|   -7.063279|   -1.600078|    0.005924|   -5.112052|
|         200|  1.5406e+00|   -6.912142|   -1.449354|    0.002847|   -4.797544|
|         201|  1.5393e+00|   -6.805571|   -1.343017|   -0.000187|   -4.418306|
|         202|  1.5379e+00|   -6.725992|   -1.263586|   -0.003126|   -3.980649|
|         203|  1.5362e+00|   -6.664869|   -1.202563|   -0.005920|   -3.491711|
|         204|  1.5347e+00|   -6.617485|   -1.155247|   -0.008520|   -2.959344|
|         205|  1.5330e+00|   -6.581001|   -1.118809|   -0.010881|   -2.391979|
|         206|  1.5310e+00|   -6.553612|   -1.091449|   -0.012964|   -1.798480|
|         207|  1.5291e+00|   -6.534140|   -1.071993|   -0.014741|   -1.187978|
|         208|  1.5284e+00|   -6.521810|   -1.059671|   -0.016191|   -0.569712|
|         209|  1.5281e+00|   -6.516138|   -1.054000|   -0.017301|    0.047137|
|         210|  1.5275e+00|   -6.516859|   -1.054718|   -0.018062|    0.653597|
|         211|  1.5271e+00|   -6.523896|   -1.061752|   -0.018469|    1.241046|
|         212|  1.5257e+00|   -6.537353|   -1.075207|   -0.018521|    1.801335|
|         213|  1.5252e+00|   -6.557526|   -1.095381|   -0.018220|    2.326892|
|         214|  1.5253e+00|   -6.584945|   -1.122804|   -0.017569|    2.810814|
|         215|  1.5254e+00|   -6.620443|   -1.158313|   -0.016579|    3.246936|
|         216|  1.5252e+00|   -6.665295|   -1.203182|   -0.015263|    3.629888|
|         217|  1.5251e+00|   -6.721461|   -1.259375|   -0.013637|    3.955141|
|         218|  1.5246e+00|   -6.792058|   -1.330009|   -0.011725|    4.219035|
|         219|  1.5251e+00|   -6.882348|   -1.420349|   -0.009552|    4.418806|
|         220|  1.5253e+00|   -7.002110|   -1.540188|   -0.007148|    4.552600|
|         221|  1.5255e+00|   -7.172488|   -1.710703|   -0.004548|    4.619480|
|         222|  1.5265e+00|   -7.451755|   -1.990363|   -0.001789|    4.619434|
|         223|  1.5259e+00|   -7.873193|   -2.413093|    0.001086|    4.553378|
|         224|  1.5249e+00|   -7.448120|   -1.986069|    0.004034|    4.423154|
|         225|  1.5239e+00|   -7.180261|   -1.718204|    0.007011|    4.231498|
|         226|  1.5226e+00|   -7.018505|   -1.556497|    0.009970|    3.982003|
|         227|  1.5215e+00|   -6.906449|   -1.444483|    0.012868|    3.679059|
|         228|  1.5205e+00|   -6.823472|   -1.361538|    0.015663|    3.327793|
|         229|  1.5190e+00|   -6.759986|   -1.298077|    0.018313|    2.933981|
|         230|  1.5176e+00|   -6.710818|   -1.248926|    0.020780|    2.503962|
|         231|  1.5165e+00|   -6.672894|   -1.211014|    0.023029|    2.044524|
|         232|  1.5153e+00|   -6.644277|   -1.182405|    0.025026|    1.562797|
|         233|  1.5138e+00|   -6.623704|   -1.161835|    0.026743|    1.066132|
|         234|  1.5121e+00|   -6.610345|   -1.148478|    0.028155|    0.561975|
|         235|  1.5106e+00|   -6.603674|   -1.141807|    0.029240|    0.057754|
|         236|  1.5092e+00|   -6.603393|   -1.141528|    0.029983|   -0.439245|
|         237|  1.5077e+00|   -6.609398|   -1.147536|    0.030372|   -0.921981|
|         238|  1.5065e+00|   -6.621764|   -1.159910|    0.030402|   -1.383760|
|         239|  1.5052e+00|   -6.640755|   -1.178916|    0.030072|   -1.818324|
|         240|  1.5037e+00|   -6.666861|   -1.205044|    0.029388|   -2.219926|
|         241|  1.5023e+00|   -6.700858|   -1.239074|    0.028360|   -2.583398|
|         242|  1.5008e+00|   -6.743936|   -1.282200|    0.027004|   -2.904202|
|         243|  1.4992e+00|   -6.797919|   -1.336250|    0.025342|   -3.178475|
|         244|  1.4980e+00|   -6.865681|   -1.404107|    0.023399|   -3.403063|
|         245|  1.4966e+00|   -6.952021|   -1.490588|    0.021203|   -3.575547|
|         246|  1.4955e+00|   -7.065712|   -1.604506|    0.018788|   -3.694258|
|         247|  1.4950e+00|   -7.225285|   -1.764503|    0.016190|   -3.758290|
|         248|  1.4942e+00|   -7.480770|   -2.021057|    0.013445|   -3.767500|
|         249|  1.4947e+00|   -7.979533|   -2.522285|    0.010595|   -3.722504|
|         250|  1.4953e+00|   -7.616372|   -2.151868|    0.007678|   -3.624669|
|         251|  1.4959e+00|   -7.307449|   -1.844070|    0.004738|   -3.476097|
|         252|  1.4962e+00|   -7.130996|   -1.668077|    0.001819|   -3.279597|
|         253|  1.4964e+00|   -7.011473|   -1.548795|   -0.001038|   -3.038645|
|         254|  1.4963e+00|   -6.923929|   -1.461397|   -0.003790|   -2.757329|
|         255|  1.4960e+00|   -6.857317|   -1.394883|   -0.006395|   -2.440286|
|         256|  1.4945e+00|   -6.805837|   -1.343469|   -0.008814|   -2.092629|
|         257|  1.4933e+00|   -6.766100|   -1.303779|   -0.011005|   -1.719861|
|         258|  1.4919e+00|   -6.735991|   -1.273702|   -0.012933|   -1.327786|
|         259|  1.4910e+00|   -6.714138|   -1.251871|   -0.014563|   -0.922411|
|         260|  1.4899e+00|   -6.699641|   -1.237388|   -0.015869|   -0.509845|
|         261|  1.4888e+00|   -6.691924|   -1.229679|   -0.016832|   -0.096205|
|         262|  1.4876e+00|   -6.690652|   -1.228411|   -0.017440|    0.312488|
|         263|  1.4862e+00|   -6.695692|   -1.233450|   -0.017689|    0.710397|
|         264|  1.4852e+00|   -6.707091|   -1.244848|   -0.017580|    1.091955|
|         265|  1.4848e+00|   -6.725088|   -1.262843|   -0.017120|    1.451941|
|         266|  1.4846e+00|   -6.750142|   -1.287893|   -0.016320|    1.785547|
|         267|  1.4846e+00|   -6.782991|   -1.320737|   -0.015195|    2.088434|
|         268|  1.4845e+00|   -6.824770|   -1.362512|   -0.013764|    2.356777|
|         269|  1.4845e+00|   -6.877216|   -1.414950|   -0.012048|    2.587310|
|         270|  1.4843e+00|   -6.943055|   -1.480777|   -0.010072|    2.777347|
|         271|  1.4843e+00|   -7.026808|   -1.564509|   -0.007865|    2.924812|
|         272|  1.4841e+00|   -7.136651|   -1.674314|   -0.005457|    3.028254|
|         273|  1.4842e+00|   -7.289614|   -1.827201|   -0.002883|    3.086855|
|         274|  1.4845e+00|   -7.530995|   -2.068418|   -0.000180|    3.100436|
|         275|  1.4849e+00|   -8.041907|   -2.579907|    0.002613|    3.069456|
|         276|  1.4850e+00|   -7.775914|   -2.315548|    0.005456|    2.995007|
|         277|  1.4841e+00|   -7.426100|   -1.964752|    0.008306|    2.878790|
|         278|  1.4829e+00|   -7.237454|   -1.775875|    0.011122|    2.723086|
|         279|  1.4817e+00|   -7.112137|   -1.650465|    0.013863|    2.530715|
|         280|  1.4811e+00|   -7.021147|   -1.559429|    0.016489|    2.304993|
|         281|  1.4802e+00|   -6.952193|   -1.490450|    0.018961|    2.049675|
|         282|  1.4792e+00|   -6.898965|   -1.437206|    0.021244|    1.768893|
|         283|  1.4788e+00|   -6.857828|   -1.396060|    0.023302|    1.467092|
|         284|  1.4787e+00|   -6.826532|   -1.364758|    0.025106|    1.148953|
|         285|  1.4776e+00|   -6.803623|   -1.341846|    0.026628|    0.819324|
|         286|  1.4764e+00|   -6.788145|   -1.326368|    0.027845|    0.483139|
|         287|  1.4751e+00|   -6.779484|   -1.317708|    0.028738|    0.145346|
|         288|  1.4739e+00|   -6.777273|   -1.315502|    0.029294|   -0.189172|
|         289|  1.4738e+00|   -6.781351|   -1.319587|    0.029506|   -0.515661|
|         290|  1.4732e+00|   -6.791738|   -1.329987|    0.029372|   -0.829568|
|         291|  1.4725e+00|   -6.808642|   -1.346910|    0.028895|   -1.126600|
|         292|  1.4717e+00|   -6.832482|   -1.370777|    0.028085|   -1.402779|
|         293|  1.4704e+00|   -6.863944|   -1.402277|    0.026956|   -1.654491|
|         294|  1.4697e+00|   -6.904086|   -1.442470|    0.025527|   -1.878530|
|         295|  1.4691e+00|   -6.954520|   -1.492974|    0.023819|   -2.072132|
|         296|  1.4681e+00|   -7.017759|   -1.556314|    0.021861|   -2.233004|
|         297|  1.4670e+00|   -7.097927|   -1.636630|    0.019681|   -2.359350|
|         298|  1.4658e+00|   -7.202354|   -1.741294|    0.017313|   -2.449882|
|         299|  1.4649e+00|   -7.345888|   -1.885265|    0.014790|   -2.503835|
|         300|  1.4639e+00|   -7.566179|   -2.106613|    0.012150|   -2.520968|
|         301|  1.4639e+00|   -8.012012|   -2.557597|    0.009431|   -2.501562|
|         302|  1.4645e+00|   -7.975102|   -2.509528|    0.006671|   -2.446412|
|         303|  1.4646e+00|   -7.559775|   -2.095805|    0.003909|   -2.356813|
|         304|  1.4644e+00|   -7.352635|   -1.889344|    0.001187|   -2.234536|
|         305|  1.4646e+00|   -7.218709|   -1.755746|   -0.001456|   -2.081805|
|         306|  1.4641e+00|   -7.122671|   -1.659899|   -0.003984|   -1.901258|
|         307|  1.4634e+00|   -7.050342|   -1.587694|   -0.006357|   -1.695902|
|         308|  1.4626e+00|   -6.994656|   -1.532092|   -0.008542|   -1.469069|
|         309|  1.4623e+00|   -6.951614|   -1.489110|   -0.010506|   -1.224360|
|         310|  1.4621e+00|   -6.918768|   -1.456307|   -0.012220|   -0.965587|
|         311|  1.4610e+00|   -6.894547|   -1.432116|   -0.013657|   -0.696711|
|         312|  1.4597e+00|   -6.877919|   -1.415509|   -0.014795|   -0.421782|
|         313|  1.4588e+00|   -6.868216|   -1.405820|   -0.015616|   -0.144873|
|         314|  1.4579e+00|   -6.865036|   -1.402647|   -0.016105|    0.129981|
|         315|  1.4572e+00|   -6.868183|   -1.405797|   -0.016256|    0.398842|
|         316|  1.4562e+00|   -6.877654|   -1.415265|   -0.016067|    0.657927|
|         317|  1.4550e+00|   -6.893629|   -1.431234|   -0.015543|    0.903659|
|         318|  1.4538e+00|   -6.916498|   -1.454092|   -0.014693|    1.132719|
|         319|  1.4528e+00|   -6.946912|   -1.484490|   -0.013535|    1.342081|
|         320|  1.4516e+00|   -6.985879|   -1.523433|   -0.012090|    1.529056|
|         321|  1.4504e+00|   -7.034933|   -1.572453|   -0.010380|    1.691318|
|         322|  1.4492e+00|   -7.096461|   -1.633931|   -0.008434|    1.826929|
|         323|  1.4480e+00|   -7.174353|   -1.711748|   -0.006281|    1.934362|
|         324|  1.4470e+00|   -7.275453|   -1.812725|   -0.003955|    2.012512|
|         325|  1.4462e+00|   -7.413406|   -1.950458|   -0.001488|    2.060706|
|         326|  1.4453e+00|   -7.621917|   -2.158491|    0.001083|    2.078707|
|         327|  1.4451e+00|   -8.030722|   -2.565851|    0.003720|    2.066712|
|         328|  1.4446e+00|   -8.165309|   -2.709497|    0.006386|    2.025345|
|         329|  1.4437e+00|   -7.682161|   -2.222014|    0.009043|    1.955646|
|         330|  1.4431e+00|   -7.460052|   -1.999131|    0.011653|    1.859044|
|         331|  1.4426e+00|   -7.319664|   -1.858439|    0.014177|    1.737335|
|         332|  1.4416e+00|   -7.219951|   -1.758569|    0.016580|    1.592651|
|         333|  1.4407e+00|   -7.145185|   -1.683712|    0.018826|    1.427424|
|         334|  1.4397e+00|   -7.087709|   -1.626177|    0.020883|    1.244345|
|         335|  1.4387e+00|   -7.043250|   -1.581679|    0.022719|    1.046323|
|         336|  1.4376e+00|   -7.009212|   -1.547616|    0.024308|    0.836435|
|         337|  1.4366e+00|   -6.983936|   -1.522325|    0.025627|    0.617884|
|         338|  1.4357e+00|   -6.966336|   -1.504716|    0.026655|    0.393946|
|         339|  1.4348e+00|   -6.955703|   -1.494081|    0.027380|    0.167921|
|         340|  1.4337e+00|   -6.951601|   -1.489983|    0.027791|   -0.056912|
|         341|  1.4327e+00|   -6.953811|   -1.492202|    0.027884|   -0.277346|
|         342|  1.4317e+00|   -6.962298|   -1.500707|    0.027659|   -0.490289|
|         343|  1.4306e+00|   -6.977215|   -1.515648|    0.027123|   -0.692808|
|         344|  1.4297e+00|   -6.998914|   -1.537382|    0.026284|   -0.882164|
|         345|  1.4289e+00|   -7.027997|   -1.566512|    0.025158|   -1.055850|
|         346|  1.4289e+00|   -7.065398|   -1.603978|    0.023763|   -1.211623|
|         347|  1.4282e+00|   -7.112542|   -1.651209|    0.022120|   -1.347529|
|         348|  1.4272e+00|   -7.171627|   -1.710418|    0.020256|   -1.461927|
|         349|  1.4261e+00|   -7.246200|   -1.785173|    0.018198|   -1.553505|
|         350|  1.4251e+00|   -7.342395|   -1.881655|    0.015978|   -1.621294|
|         351|  1.4240e+00|   -7.472114|   -2.011886|    0.013627|   -1.664679|
|         352|  1.4233e+00|   -7.663348|   -2.204270|    0.011180|   -1.683399|
|         353|  1.4227e+00|   -8.012632|   -2.558103|    0.008673|   -1.677548|
|         354|  1.4223e+00|   -8.422776|   -2.960603|    0.006142|   -1.647569|
|         355|  1.4217e+00|   -7.826625|   -2.361495|    0.003623|   -1.594243|
|         356|  1.4219e+00|   -7.579544|   -2.115556|    0.001153|   -1.518677|
|         357|  1.4226e+00|   -7.428721|   -1.965259|   -0.001233|   -1.422282|
|         358|  1.4252e+00|   -7.323194|   -1.860025|   -0.003500|   -1.306752|
|         359|  1.4278e+00|   -7.244657|   -1.781672|   -0.005616|   -1.174031|
|         360|  1.4294e+00|   -7.184488|   -1.721627|   -0.007551|   -1.026290|
|         361|  1.4311e+00|   -7.137972|   -1.675198|   -0.009276|   -0.865883|
|         362|  1.4321e+00|   -7.102282|   -1.639570|   -0.010766|   -0.695315|
|         363|  1.4333e+00|   -7.075623|   -1.612956|   -0.012002|   -0.517203|
|         364|  1.4332e+00|   -7.056824|   -1.594188|   -0.012964|   -0.334233|
|         365|  1.4335e+00|   -7.045118|   -1.582503|   -0.013639|   -0.149119|
|         366|  1.4346e+00|   -7.040030|   -1.577427|   -0.014018|    0.035435|
|         367|  1.4357e+00|   -7.041305|   -1.578707|   -0.014096|    0.216777|
|         368|  1.4368e+00|   -7.048885|   -1.586283|   -0.013872|    0.392344|
|         369|  1.4378e+00|   -7.062894|   -1.600280|   -0.013351|    0.559697|
|         370|  1.4383e+00|   -7.083657|   -1.621023|   -0.012541|    0.716558|
|         371|  1.4393e+00|   -7.111741|   -1.649077|   -0.011455|    0.860834|
|         372|  1.4405e+00|   -7.148037|   -1.685328|   -0.010110|    0.990648|
|         373|  1.4421e+00|   -7.193902|   -1.731130|   -0.008528|    1.104361|
|         374|  1.4433e+00|   -7.251428|   -1.788567|   -0.006733|    1.200590|
|         375|  1.4445e+00|   -7.323968|   -1.860974|   -0.004755|    1.278226|
|         376|  1.4449e+00|   -7.417273|   -1.954072|   -0.002622|    1.336439|
|         377|  1.4454e+00|   -7.542341|   -2.078782|   -0.000369|    1.374694|
|         378|  1.4464e+00|   -7.724404|   -2.260114|    0.001972|    1.392748|
|         379|  1.4487e+00|   -8.046361|   -2.579918|    0.004366|    1.390650|
|         380|  1.4512e+00|   -8.668476|   -3.224353|    0.006777|    1.368741|
|         381|  1.4537e+00|   -7.955715|   -2.497863|    0.009169|    1.327640|
|         382|  1.4554e+00|   -7.688704|   -2.228886|    0.011509|    1.268231|
|         383|  1.4552e+00|   -7.530302|   -2.069799|    0.013761|    1.191649|
|         384|  1.4555e+00|   -7.420696|   -1.959853|    0.015894|    1.099257|
|         385|  1.4563e+00|   -7.339535|   -1.878495|    0.017876|    0.992625|
|         386|  1.4565e+00|   -7.277475|   -1.816309|    0.019680|    0.873503|
|         387|  1.4566e+00|   -7.229480|   -1.768231|    0.021279|    0.743793|
|         388|  1.4564e+00|   -7.192558|   -1.731253|    0.022652|    0.605522|
|         389|  1.4560e+00|   -7.164818|   -1.703476|    0.023780|    0.460805|
|         390|  1.4562e+00|   -7.145028|   -1.683663|    0.024648|    0.311820|
|         391|  1.4558e+00|   -7.132380|   -1.671004|    0.025245|    0.160769|
|         392|  1.4556e+00|   -7.126363|   -1.664987|    0.025564|    0.009853|
|         393|  1.4552e+00|   -7.126697|   -1.665331|    0.025602|   -0.138766|
|         394|  1.4548e+00|   -7.133295|   -1.671948|    0.025362|   -0.282994|
|         395|  1.4553e+00|   -7.146251|   -1.684936|    0.024846|   -0.420830|
|         396|  1.4558e+00|   -7.165854|   -1.704585|    0.024066|   -0.550396|
|         397|  1.4561e+00|   -7.192626|   -1.731419|    0.023034|   -0.669964|
|         398|  1.4557e+00|   -7.227387|   -1.766265|    0.021765|   -0.777972|
|         399|  1.4553e+00|   -7.271391|   -1.810386|    0.020281|   -0.873049|
|         400|  1.4551e+00|   -7.326562|   -1.865719|    0.018603|   -0.954029|
|         401|  1.4549e+00|   -7.395948|   -1.935342|    0.016757|   -1.019966|
|         402|  1.4548e+00|   -7.484695|   -2.024457|    0.014771|   -1.070140|
|         403|  1.4547e+00|   -7.602385|   -2.142781|    0.012674|   -1.104069|
|         404|  1.4544e+00|   -7.770023|   -2.311739|    0.010497|   -1.121509|
|         405|  1.4555e+00|   -8.049948|   -2.595862|    0.008273|   -1.122457|
|         406|  1.4567e+00|   -8.744757|   -3.338818|    0.006033|   -1.107143|
|         407|  1.4576e+00|   -8.118281|   -2.651157|    0.003810|   -1.076029|
|         408|  1.4584e+00|   -7.814785|   -2.349588|    0.001637|   -1.029797|
|         409|  1.4581e+00|   -7.643044|   -2.178745|   -0.000455|   -0.969335|
|         410|  1.4579e+00|   -7.526451|   -2.062637|   -0.002437|   -0.895725|
|         411|  1.4582e+00|   -7.440918|   -1.977400|   -0.004279|   -0.810222|
|         412|  1.4584e+00|   -7.375812|   -1.912490|   -0.005957|   -0.714233|
|         413|  1.4589e+00|   -7.325533|   -1.862348|   -0.007446|   -0.609299|
|         414|  1.4591e+00|   -7.286803|   -1.823715|   -0.008726|   -0.497065|
|         415|  1.4595e+00|   -7.257569|   -1.794551|   -0.009779|   -0.379257|
|         416|  1.4598e+00|   -7.236500|   -1.773531|   -0.010591|   -0.257658|
|         417|  1.4595e+00|   -7.222722|   -1.759786|   -0.011150|   -0.134076|
|         418|  1.4589e+00|   -7.215679|   -1.752761|   -0.011451|   -0.010322|
|         419|  1.4586e+00|   -7.215055|   -1.752144|   -0.011490|    0.111820|
|         420|  1.4580e+00|   -7.220733|   -1.757817|   -0.011267|    0.230617|
|         421|  1.4576e+00|   -7.232783|   -1.769848|   -0.010788|    0.344410|
|         422|  1.4575e+00|   -7.251466|   -1.788500|   -0.010061|    0.451641|
|         423|  1.4571e+00|   -7.277272|   -1.814258|   -0.009096|    0.550867|
|         424|  1.4569e+00|   -7.310983|   -1.847900|   -0.007911|    0.640786|
|         425|  1.4565e+00|   -7.353796|   -1.890617|   -0.006522|    0.720250|
|         426|  1.4563e+00|   -7.407545|   -1.944230|   -0.004952|    0.788278|
|         427|  1.4559e+00|   -7.475129|   -2.011614|   -0.003224|    0.844070|
|         428|  1.4551e+00|   -7.561398|   -2.097580|   -0.001365|    0.887012|
|         429|  1.4554e+00|   -7.675283|   -2.210962|    0.000598|    0.916686|
|         430|  1.4556e+00|   -7.835972|   -2.370688|    0.002635|    0.932870|
|         431|  1.4555e+00|   -8.098279|   -2.630535|    0.004715|    0.935540|
|         432|  1.4562e+00|   -8.762135|   -3.286381|    0.006806|    0.924866|
|         433|  1.4570e+00|   -8.257938|   -2.805175|    0.008879|    0.901207|
|         434|  1.4575e+00|   -7.926015|   -2.468191|    0.010901|    0.865103|
|         435|  1.4577e+00|   -7.745185|   -2.285900|    0.012844|    0.817264|
|         436|  1.4574e+00|   -7.624027|   -2.164065|    0.014680|    0.758556|
|         437|  1.4572e+00|   -7.535660|   -2.075317|    0.016383|    0.689990|
|         438|  1.4569e+00|   -7.468555|   -2.007973|    0.017930|    0.612701|
|         439|  1.4567e+00|   -7.416733|   -1.955993|    0.019298|    0.527932|
|         440|  1.4566e+00|   -7.376728|   -1.915880|    0.020470|    0.437013|
|         441|  1.4562e+00|   -7.346383|   -1.885462|    0.021431|    0.341345|
|         442|  1.4560e+00|   -7.324299|   -1.863330|    0.022167|    0.242371|
|         443|  1.4556e+00|   -7.309557|   -1.848561|    0.022671|    0.141562|
|         444|  1.4556e+00|   -7.301568|   -1.840562|    0.022935|    0.040392|
|         445|  1.4552e+00|   -7.299986|   -1.838987|    0.022959|   -0.059683|
|         446|  1.4549e+00|   -7.304667|   -1.843691|    0.022744|   -0.157244|
|         447|  1.4547e+00|   -7.315651|   -1.854713|    0.022293|   -0.250931|
|         448|  1.4542e+00|   -7.333163|   -1.872284|    0.021616|   -0.339460|
|         449|  1.4543e+00|   -7.357647|   -1.896851|    0.020724|   -0.421641|
|         450|  1.4541e+00|   -7.389818|   -1.929136|    0.019631|   -0.496391|
|         451|  1.4544e+00|   -7.430778|   -1.970250|    0.018354|   -0.562752|
|         452|  1.4547e+00|   -7.482200|   -2.021889|    0.016912|   -0.619900|
|         453|  1.4548e+00|   -7.546709|   -2.086709|    0.015329|   -0.667155|
|         454|  1.4550e+00|   -7.628622|   -2.169097|    0.013627|   -0.703989|
|         455|  1.4556e+00|   -7.735695|   -2.276959|    0.011832|   -0.730031|
|         456|  1.4563e+00|   -7.883880|   -2.426684|    0.009970|   -0.745069|
|         457|  1.4571e+00|   -8.114923|   -2.661846|    0.008070|   -0.749053|
|         458|  1.4571e+00|   -8.607961|   -3.183774|    0.006159|   -0.742093|
|         459|  1.4572e+00|   -8.451511|   -2.982023|    0.004264|   -0.724452|
|         460|  1.4573e+00|   -8.062250|   -2.595004|    0.002414|   -0.696544|
|         461|  1.4574e+00|   -7.863343|   -2.397676|    0.000634|   -0.658925|
|         462|  1.4578e+00|   -7.733384|   -2.268546|   -0.001050|   -0.612279|
|         463|  1.4587e+00|   -7.639744|   -2.175399|   -0.002614|   -0.557414|
|         464|  1.4590e+00|   -7.569069|   -2.105046|   -0.004036|   -0.495241|
|         465|  1.4595e+00|   -7.514630|   -2.050827|   -0.005297|   -0.426765|
|         466|  1.4598e+00|   -7.472591|   -2.008943|   -0.006379|   -0.353065|
|         467|  1.4595e+00|   -7.440591|   -1.977054|   -0.007268|   -0.275281|
|         468|  1.4593e+00|   -7.417111|   -1.953653|   -0.007952|   -0.194592|
|         469|  1.4589e+00|   -7.401154|   -1.937748|   -0.008423|   -0.112204|
|         470|  1.4590e+00|   -7.392077|   -1.928702|   -0.008675|   -0.029327|
|         471|  1.4594e+00|   -7.389495|   -1.926133|   -0.008705|    0.052839|
|         472|  1.4590e+00|   -7.393233|   -1.929864|   -0.008516|    0.133124|
|         473|  1.4587e+00|   -7.403302|   -1.939909|   -0.008110|    0.210401|
|         474|  1.4586e+00|   -7.419903|   -1.956465|   -0.007496|    0.283607|
|         475|  1.4581e+00|   -7.443452|   -1.979944|   -0.006684|    0.351751|
|         476|  1.4578e+00|   -7.474630|   -2.011023|   -0.005686|    0.413931|
|         477|  1.4574e+00|   -7.514491|   -2.050745|   -0.004518|    0.469346|
|         478|  1.4570e+00|   -7.564641|   -2.100701|   -0.003198|    0.517303|
|         479|  1.4566e+00|   -7.627588|   -2.163369|   -0.001748|    0.557228|
|         480|  1.4562e+00|   -7.707443|   -2.242806|   -0.000188|    0.588672|
|         481|  1.4559e+00|   -7.811515|   -2.346210|    0.001457|    0.611312|
|         482|  1.4554e+00|   -7.954634|   -2.488121|    0.003162|    0.624961|
|         483|  1.4555e+00|   -8.174616|   -2.705377|    0.004903|    0.629559|
|         484|  1.4555e+00|   -8.628348|   -3.149208|    0.006653|    0.625182|
|         485|  1.4555e+00|   -8.607981|   -3.167957|    0.008387|    0.612029|
|         486|  1.4551e+00|   -8.175348|   -2.721242|    0.010080|    0.590426|
|         487|  1.4550e+00|   -7.965526|   -2.508311|    0.011707|    0.560811|
|         488|  1.4549e+00|   -7.830550|   -2.372023|    0.013246|    0.523733|
|         489|  1.4550e+00|   -7.733921|   -2.274687|    0.014675|    0.479839|
|         490|  1.4555e+00|   -7.661184|   -2.201515|    0.015974|    0.429862|
|         491|  1.4558e+00|   -7.605170|   -2.145217|    0.017124|    0.374613|
|         492|  1.4562e+00|   -7.561836|   -2.101690|    0.018112|    0.314966|
|         493|  1.4565e+00|   -7.528708|   -2.068430|    0.018923|    0.251842|
|         494|  1.4570e+00|   -7.504199|   -2.043831|    0.019547|    0.186201|
|         495|  1.4567e+00|   -7.487263|   -2.026840|    0.019976|    0.119021|
|         496|  1.4562e+00|   -7.477222|   -2.016772|    0.020207|    0.051291|
|         497|  1.4565e+00|   -7.473663|   -2.013211|    0.020237|   -0.016010|
|         498|  1.4568e+00|   -7.476382|   -2.015951|    0.020068|   -0.081925|
|         499|  1.4572e+00|   -7.485359|   -2.024976|    0.019703|   -0.145528|
|         500|  1.4576e+00|   -7.500761|   -2.040453|    0.019149|   -0.205943|
|         501|  1.4577e+00|   -7.522955|   -2.062755|    0.018417|   -0.262352|
|         502|  1.4580e+00|   -7.552560|   -2.092511|    0.017517|   -0.314008|
|         503|  1.4583e+00|   -7.590533|   -2.130691|    0.016464|   -0.360241|
|         504|  1.4586e+00|   -7.638330|   -2.178775|    0.015274|   -0.400472|
|         505|  1.4592e+00|   -7.698200|   -2.239055|    0.013966|   -0.434213|
|         506|  1.4593e+00|   -7.773771|   -2.315241|    0.012560|   -0.461080|
|         507|  1.4595e+00|   -7.871338|   -2.413801|    0.011076|   -0.480791|
|         508|  1.4596e+00|   -8.003144|   -2.547434|    0.009537|   -0.493172|
|         509|  1.4599e+00|   -8.198043|   -2.746629|    0.007966|   -0.498156|
|         510|  1.4603e+00|   -8.553357|   -3.120594|    0.006385|   -0.495782|
|         511|  1.4601e+00|   -8.836708|   -3.379982|    0.004816|   -0.486197|
|         512|  1.4601e+00|   -8.327277|   -2.856851|    0.003284|   -0.469646|
|         513|  1.4605e+00|   -8.091627|   -2.623806|    0.001810|   -0.446472|
|         514|  1.4612e+00|   -7.945049|   -2.478627|    0.000414|   -0.417109|
|         515|  1.4613e+00|   -7.841793|   -2.376190|   -0.000884|   -0.382071|
|         516|  1.4611e+00|   -7.764716|   -2.299638|   -0.002065|   -0.341948|
|         517|  1.4611e+00|   -7.705601|   -2.240878|   -0.003114|   -0.297392|
|         518|  1.4612e+00|   -7.659907|   -2.195434|   -0.004017|   -0.249110|
|         519|  1.4614e+00|   -7.624896|   -2.160601|   -0.004760|   -0.197854|
|         520|  1.4618e+00|   -7.598826|   -2.134657|   -0.005336|   -0.144403|
|         521|  1.4621e+00|   -7.580556|   -2.116472|   -0.005736|   -0.089561|
|         522|  1.4616e+00|   -7.569343|   -2.105311|   -0.005957|   -0.034135|
|         523|  1.4613e+00|   -7.564725|   -2.100717|   -0.005996|    0.021069|
|         524|  1.4609e+00|   -7.566466|   -2.102453|   -0.005854|    0.075262|
|         525|  1.4605e+00|   -7.574518|   -2.110473|   -0.005536|    0.127679|
|         526|  1.4600e+00|   -7.589021|   -2.124915|   -0.005045|    0.177596|
|         527|  1.4597e+00|   -7.610318|   -2.146117|   -0.004392|    0.224333|
|         528|  1.4598e+00|   -7.639000|   -2.174662|   -0.003587|    0.267268|
|         529|  1.4602e+00|   -7.675989|   -2.211460|   -0.002643|    0.305843|
|         530|  1.4602e+00|   -7.722693|   -2.257897|   -0.001574|    0.339569|
|         531|  1.4607e+00|   -7.781284|   -2.316111|   -0.000397|    0.368038|
|         532|  1.4611e+00|   -7.855257|   -2.389530|    0.000869|    0.390922|
|         533|  1.4613e+00|   -7.950642|   -2.484056|    0.002207|    0.407976|
|         534|  1.4617e+00|   -8.079070|   -2.611010|    0.003595|    0.419047|
|         535|  1.4613e+00|   -8.267576|   -2.796512|    0.005013|    0.424067|
|         536|  1.4613e+00|   -8.605858|   -3.126238|    0.006440|    0.423058|
|         537|  1.4616e+00|   -9.009738|   -3.597455|    0.007857|    0.416125|
|         538|  1.4614e+00|   -8.440928|   -2.994215|    0.009241|    0.403461|
|         539|  1.4612e+00|   -8.192529|   -2.738924|    0.010573|    0.385333|
|         540|  1.4608e+00|   -8.040758|   -2.584596|    0.011836|    0.362087|
|         541|  1.4605e+00|   -7.934560|   -2.477095|    0.013009|    0.334133|
|         542|  1.4602e+00|   -7.855491|   -2.397253|    0.014079|    0.301946|
|         543|  1.4604e+00|   -7.794862|   -2.336125|    0.015029|    0.266051|
|         544|  1.4600e+00|   -7.747919|   -2.288844|    0.015848|    0.227021|
|         545|  1.4597e+00|   -7.711811|   -2.252504|    0.016524|    0.185462|
|         546|  1.4600e+00|   -7.684729|   -2.225263|    0.017049|    0.142009|
|         547|  1.4602e+00|   -7.665486|   -2.205917|    0.017416|    0.097315|
|         548|  1.4600e+00|   -7.653306|   -2.193678|    0.017623|    0.052038|
|         549|  1.4600e+00|   -7.647699|   -2.188051|    0.017667|    0.006838|
|         550|  1.4603e+00|   -7.648398|   -2.188768|    0.017548|   -0.037639|
|         551|  1.4606e+00|   -7.655327|   -2.195751|    0.017271|   -0.080766|
|         552|  1.4603e+00|   -7.668590|   -2.209107|    0.016840|   -0.121945|
|         553|  1.4601e+00|   -7.688481|   -2.229140|    0.016263|   -0.160617|
|         554|  1.4599e+00|   -7.715528|   -2.256385|    0.015549|   -0.196263|
|         555|  1.4593e+00|   -7.750556|   -2.291687|    0.014711|   -0.228420|
|         556|  1.4592e+00|   -7.794824|   -2.336335|    0.013761|   -0.256678|
|         557|  1.4589e+00|   -7.850254|   -2.392304|    0.012714|   -0.280692|
|         558|  1.4589e+00|   -7.919891|   -2.462736|    0.011586|   -0.300183|
|         559|  1.4589e+00|   -8.008853|   -2.552947|    0.010393|   -0.314938|
|         560|  1.4588e+00|   -8.126607|   -2.672892|    0.009155|   -0.324819|
|         561|  1.4585e+00|   -8.293583|   -2.844532|    0.007888|   -0.329757|
|         562|  1.4588e+00|   -8.567079|   -3.133124|    0.006611|   -0.329756|
|         563|  1.4587e+00|   -9.068602|   -3.709496|    0.005344|   -0.324891|
|         564|  1.4586e+00|   -8.616701|   -3.142555|    0.004104|   -0.315307|
|         565|  1.4586e+00|   -8.330409|   -2.859308|    0.002908|   -0.301211|
|         566|  1.4583e+00|   -8.162677|   -2.693846|    0.001774|   -0.282874|
|         567|  1.4581e+00|   -8.047807|   -2.580313|    0.000718|   -0.260624|
|         568|  1.4578e+00|   -7.963259|   -2.496612|   -0.000246|   -0.234839|
|         569|  1.4579e+00|   -7.898818|   -2.432742|   -0.001105|   -0.205944|
|         570|  1.4578e+00|   -7.849043|   -2.383365|   -0.001847|   -0.174400|
|         571|  1.4573e+00|   -7.810724|   -2.345329|   -0.002462|   -0.140699|
|         572|  1.4570e+00|   -7.781847|   -2.316652|   -0.002943|   -0.105360|
|         573|  1.4570e+00|   -7.761101|   -2.296045|   -0.003284|   -0.068913|
|         574|  1.4569e+00|   -7.747628|   -2.282659|   -0.003481|   -0.031900|
|         575|  1.4569e+00|   -7.740883|   -2.275958|   -0.003533|    0.005140|
|         576|  1.4572e+00|   -7.740558|   -2.275637|   -0.003439|    0.041675|
|         577|  1.4567e+00|   -7.746547|   -2.281589|   -0.003203|    0.077188|
|         578|  1.4565e+00|   -7.758927|   -2.293891|   -0.002830|    0.111185|
|         579|  1.4568e+00|   -7.777973|   -2.312813|   -0.002325|    0.143201|
|         580|  1.4569e+00|   -7.804190|   -2.338847|   -0.001697|    0.172806|
|         581|  1.4567e+00|   -7.838382|   -2.372784|   -0.000957|    0.199613|
|         582|  1.4570e+00|   -7.881779|   -2.415827|   -0.000116|    0.223279|
|         583|  1.4571e+00|   -7.936264|   -2.469819|    0.000813|    0.243513|
|         584|  1.4571e+00|   -8.004822|   -2.537665|    0.001816|    0.260077|
|         585|  1.4567e+00|   -8.092457|   -2.624227|    0.002877|    0.272790|
|         586|  1.4564e+00|   -8.208413|   -2.738428|    0.003980|    0.281528|
|         587|  1.4559e+00|   -8.372563|   -2.899312|    0.005109|    0.286226|
|         588|  1.4558e+00|   -8.640773|   -3.159931|    0.006249|    0.286880|
|         589|  1.4557e+00|   -9.183406|   -3.724232|    0.007381|    0.283542|
|         590|  1.4557e+00|   -8.726905|   -3.296492|    0.008490|    0.276320|
|         591|  1.4559e+00|   -8.427238|   -2.980215|    0.009560|    0.265378|
|         592|  1.4563e+00|   -8.254972|   -2.802793|    0.010575|    0.250930|
|         593|  1.4560e+00|   -8.137675|   -2.683069|    0.011522|    0.233236|
|         594|  1.4557e+00|   -8.051493|   -2.595506|    0.012388|    0.212600|
|         595|  1.4554e+00|   -7.985789|   -2.528931|    0.013161|    0.189363|
|         596|  1.4550e+00|   -7.934939|   -2.477499|    0.013830|    0.163898|
|         597|  1.4546e+00|   -7.895645|   -2.437805|    0.014386|    0.136603|
|         598|  1.4542e+00|   -7.865840|   -2.407723|    0.014824|    0.107899|
|         599|  1.4536e+00|   -7.844175|   -2.385874|    0.015137|    0.078218|
|         600|  1.4532e+00|   -7.829764|   -2.371349|    0.015323|    0.048001|
|         601|  1.4529e+00|   -7.822036|   -2.363569|    0.015379|    0.017688|
|         602|  1.4528e+00|   -7.820658|   -2.362194|    0.015306|   -0.012283|
|         603|  1.4528e+00|   -7.825493|   -2.367087|    0.015107|   -0.041489|
|         604|  1.4526e+00|   -7.836583|   -2.378292|    0.014785|   -0.069522|
|         605|  1.4528e+00|   -7.854155|   -2.396043|    0.014346|   -0.095998|
|         606|  1.4526e+00|   -7.878644|   -2.420793|    0.013798|   -0.120562|
|         607|  1.4522e+00|   -7.910758|   -2.453268|    0.013150|   -0.142890|
|         608|  1.4518e+00|   -7.951574|   -2.494586|    0.012412|   -0.162697|
|         609|  1.4514e+00|   -8.002730|   -2.546449|    0.011595|   -0.179736|
|         610|  1.4509e+00|   -8.066771|   -2.611518|    0.010711|   -0.193806|
|         611|  1.4506e+00|   -8.147856|   -2.694185|    0.009775|   -0.204749|
|         612|  1.4503e+00|   -8.253339|   -2.802331|    0.008800|   -0.212456|
|         613|  1.4499e+00|   -8.397915|   -2.952150|    0.007801|   -0.216867|
|         614|  1.4497e+00|   -8.617234|   -3.185453|    0.006792|   -0.217966|
|         615|  1.4495e+00|   -9.011762|   -3.652279|    0.005788|   -0.215790|
|         616|  1.4494e+00|   -8.930333|   -3.461620|    0.004803|   -0.210419|
|         617|  1.4495e+00|   -8.582477|   -3.107059|    0.003852|   -0.201979|
|         618|  1.4497e+00|   -8.387662|   -2.915353|    0.002947|   -0.190637|
|         619|  1.4499e+00|   -8.258609|   -2.788362|    0.002102|   -0.176600|
|         620|  1.4501e+00|   -8.165251|   -2.696329|    0.001328|   -0.160110|
|         621|  1.4504e+00|   -8.094693|   -2.626662|    0.000635|   -0.141441|
|         622|  1.4505e+00|   -8.040323|   -2.572913|    0.000033|   -0.120894|
|         623|  1.4501e+00|   -7.998341|   -2.531374|   -0.000471|   -0.098792|
|         624|  1.4499e+00|   -7.966403|   -2.499750|   -0.000869|   -0.075476|
|         625|  1.4497e+00|   -7.942993|   -2.476560|   -0.001158|   -0.051300|
|         626|  1.4493e+00|   -7.927118|   -2.460829|   -0.001334|   -0.026622|
|         627|  1.4490e+00|   -7.918138|   -2.451928|   -0.001396|   -0.001805|
|         628|  1.4488e+00|   -7.915669|   -2.449480|   -0.001343|    0.022793|
|         629|  1.4488e+00|   -7.919540|   -2.453316|   -0.001178|    0.046822|
|         630|  1.4490e+00|   -7.929768|   -2.463449|   -0.000904|    0.069947|
|         631|  1.4489e+00|   -7.946559|   -2.480081|   -0.000527|    0.091849|
|         632|  1.4489e+00|   -7.970337|   -2.503625|   -0.000051|    0.112234|
|         633|  1.4491e+00|   -8.001798|   -2.534757|    0.000514|    0.130831|
|         634|  1.4488e+00|   -8.042014|   -2.574518|    0.001160|    0.147401|
|         635|  1.4485e+00|   -8.092621|   -2.624496|    0.001876|    0.161737|
|         636|  1.4484e+00|   -8.156171|   -2.687156|    0.002652|    0.173669|
|         637|  1.4486e+00|   -8.236845|   -2.766525|    0.003476|    0.183061|
|         638|  1.4485e+00|   -8.342063|   -2.869707|    0.004335|    0.189817|
|         639|  1.4484e+00|   -8.486753|   -3.010905|    0.005217|    0.193882|
|         640|  1.4482e+00|   -8.707734|   -3.225049|    0.006109|    0.195238|
|         641|  1.4483e+00|   -9.118857|   -3.632878|    0.006997|    0.193906|
|         642|  1.4484e+00|   -9.028355|   -3.637432|    0.007870|    0.189948|
|         643|  1.4483e+00|   -8.669804|   -3.235585|    0.008714|    0.183459|
|         644|  1.4483e+00|   -8.473089|   -3.027871|    0.009518|    0.174573|
|         645|  1.4480e+00|   -8.343094|   -2.893219|    0.010271|    0.163452|
|         646|  1.4477e+00|   -8.249006|   -2.796623|    0.010961|    0.150290|
|         647|  1.4473e+00|   -8.177774|   -2.723859|    0.011580|    0.135307|
|         648|  1.4469e+00|   -8.122731|   -2.667811|    0.012120|    0.118746|
|         649|  1.4465e+00|   -8.080055|   -2.624448|    0.012573|    0.100869|
|         650|  1.4460e+00|   -8.047384|   -2.591302|    0.012934|    0.081951|
|         651|  1.4456e+00|   -8.023189|   -2.566783|    0.013199|    0.062279|
|         652|  1.4452e+00|   -8.006462|   -2.549848|    0.013365|    0.042148|
|         653|  1.4448e+00|   -7.996544|   -2.539818|    0.013429|    0.021853|
|         654|  1.4449e+00|   -7.993033|   -2.536279|    0.013393|    0.001686|
|         655|  1.4451e+00|   -7.995729|   -2.539028|    0.013258|   -0.018064|
|         656|  1.4453e+00|   -8.004612|   -2.548048|    0.013027|   -0.037122|
|         657|  1.4456e+00|   -8.019840|   -2.563505|    0.012704|   -0.055224|
|         658|  1.4461e+00|   -8.041767|   -2.585769|    0.012294|   -0.072125|
|         659|  1.4462e+00|   -8.070984|   -2.615463|    0.011805|   -0.087602|
|         660|  1.4463e+00|   -8.108407|   -2.653549|    0.011244|   -0.101454|
|         661|  1.4460e+00|   -8.155418|   -2.701489|    0.010621|   -0.113508|
|         662|  1.4461e+00|   -8.214134|   -2.761542|    0.009943|   -0.123618|
|         663|  1.4457e+00|   -8.287921|   -2.837346|    0.009223|   -0.131668|
|         664|  1.4458e+00|   -8.382485|   -2.935197|    0.008471|   -0.137576|
|         665|  1.4458e+00|   -8.508475|   -3.067262|    0.007697|   -0.141287|
|         666|  1.4461e+00|   -8.688774|   -3.261683|    0.006914|   -0.142783|
|         667|  1.4464e+00|   -8.979233|   -3.604175|    0.006132|   -0.142076|
|         668|  1.4468e+00|   -9.199682|   -3.802793|    0.005363|   -0.139210|
|         669|  1.4470e+00|   -8.848628|   -3.370699|    0.004618|   -0.134258|
|         670|  1.4473e+00|   -8.621272|   -3.144543|    0.003907|   -0.127323|
|         671|  1.4474e+00|   -8.475042|   -3.001011|    0.003240|   -0.118534|
|         672|  1.4471e+00|   -8.371283|   -2.899175|    0.002627|   -0.108046|
|         673|  1.4469e+00|   -8.293668|   -2.822888|    0.002075|   -0.096036|
|         674|  1.4467e+00|   -8.234100|   -2.764256|    0.001593|   -0.082697|
|         675|  1.4464e+00|   -8.188044|   -2.718870|    0.001186|   -0.068243|
|         676|  1.4462e+00|   -8.152749|   -2.684057|    0.000859|   -0.052896|
|         677|  1.4459e+00|   -8.126458|   -2.658107|    0.000616|   -0.036892|
|         678|  1.4456e+00|   -8.108019|   -2.639897|    0.000460|   -0.020468|
|         679|  1.4453e+00|   -8.096681|   -2.628695|    0.000393|   -0.003868|
|         680|  1.4451e+00|   -8.091977|   -2.624045|    0.000414|    0.012668|
|         681|  1.4452e+00|   -8.093668|   -2.625710|    0.000523|    0.028904|
|         682|  1.4450e+00|   -8.101704|   -2.633641|    0.000716|    0.044612|
|         683|  1.4446e+00|   -8.116228|   -2.647972|    0.000991|    0.059575|
|         684|  1.4443e+00|   -8.137584|   -2.669038|    0.001342|    0.073588|
|         685|  1.4440e+00|   -8.166370|   -2.697413|    0.001763|    0.086467|
|         686|  1.4437e+00|   -8.203516|   -2.733994|    0.002248|    0.098043|
|         687|  1.4434e+00|   -8.250440|   -2.780143|    0.002790|    0.108170|
|         688|  1.4432e+00|   -8.309328|   -2.837956|    0.003379|    0.116726|
|         689|  1.4428e+00|   -8.383681|   -2.910780|    0.004007|    0.123612|
|         690|  1.4429e+00|   -8.479494|   -3.004321|    0.004665|    0.128753|
|         691|  1.4431e+00|   -8.608116|   -3.129364|    0.005342|    0.132104|
|         692|  1.4428e+00|   -8.794562|   -3.309929|    0.006029|    0.133644|
|         693|  1.4426e+00|   -9.102716|   -3.615490|    0.006715|    0.133378|
|         694|  1.4424e+00|   -9.284891|   -3.963168|    0.007391|    0.131338|
|         695|  1.4422e+00|   -8.916206|   -3.509173|    0.008048|    0.127579|
|         696|  1.4423e+00|   -8.693707|   -3.261353|    0.008675|    0.122183|
|         697|  1.4420e+00|   -8.549975|   -3.108236|    0.009264|    0.115250|
|         698|  1.4416e+00|   -8.447424|   -3.000982|    0.009808|    0.106905|
|         699|  1.4413e+00|   -8.370339|   -2.921141|    0.010298|    0.097289|
|         700|  1.4412e+00|   -8.310897|   -2.859934|    0.010728|    0.086558|
|         701|  1.4415e+00|   -8.264697|   -2.812545|    0.011093|    0.074883|
|         702|  1.4418e+00|   -8.229056|   -2.776083|    0.011388|    0.062446|
|         703|  1.4416e+00|   -8.202250|   -2.748713|    0.011609|    0.049437|
|         704|  1.4414e+00|   -8.183142|   -2.729230|    0.011754|    0.036051|
|         705|  1.4410e+00|   -8.170980|   -2.716847|    0.011823|    0.022486|
|         706|  1.4407e+00|   -8.165289|   -2.711066|    0.011813|    0.008939|
|         707|  1.4404e+00|   -8.165805|   -2.711614|    0.011728|   -0.004397|
|         708|  1.4400e+00|   -8.172448|   -2.718411|    0.011568|   -0.017334|
|         709|  1.4397e+00|   -8.185308|   -2.731556|    0.011336|   -0.029691|
|         710|  1.4392e+00|   -8.204657|   -2.751342|    0.011038|   -0.041302|
|         711|  1.4392e+00|   -8.230981|   -2.778294|    0.010677|   -0.052010|
|         712|  1.4393e+00|   -8.265044|   -2.813234|    0.010259|   -0.061677|
|         713|  1.4393e+00|   -8.307999|   -2.857416|    0.009792|   -0.070179|
|         714|  1.4390e+00|   -8.361587|   -2.912753|    0.009282|   -0.077412|
|         715|  1.4390e+00|   -8.428506|   -2.982271|    0.008737|   -0.083293|
|         716|  1.4390e+00|   -8.513148|   -3.071027|    0.008166|   -0.087757|
|         717|  1.4390e+00|   -8.623198|   -3.188305|    0.007577|   -0.090761|
|         718|  1.4391e+00|   -8.773475|   -3.353714|    0.006978|   -0.092286|
|         719|  1.4389e+00|   -8.994506|   -3.618304|    0.006378|   -0.092332|
|         720|  1.4386e+00|   -9.275899|   -4.010210|    0.005787|   -0.090919|
|         721|  1.4384e+00|   -9.114583|   -3.652945|    0.005211|   -0.088092|
|         722|  1.4381e+00|   -8.862792|   -3.382967|    0.004660|   -0.083912|
|         723|  1.4379e+00|   -8.697417|   -3.219003|    0.004141|   -0.078459|
|         724|  1.4378e+00|   -8.581739|   -3.105561|    0.003662|   -0.071831|
|         725|  1.4380e+00|   -8.496091|   -3.021679|    0.003228|   -0.064141|
|         726|  1.4380e+00|   -8.430677|   -2.957570|    0.002846|   -0.055515|
|         727|  1.4377e+00|   -8.380097|   -2.907949|    0.002520|   -0.046091|
|         728|  1.4373e+00|   -8.341122|   -2.869676|    0.002255|   -0.036017|
|         729|  1.4370e+00|   -8.311710|   -2.840769|    0.002053|   -0.025446|
|         730|  1.4367e+00|   -8.290525|   -2.819934|    0.001918|   -0.014537|
|         731|  1.4364e+00|   -8.276691|   -2.806321|    0.001850|   -0.003453|
|         732|  1.4360e+00|   -8.269650|   -2.799386|    0.001849|    0.007646|
|         733|  1.4358e+00|   -8.269085|   -2.798820|    0.001915|    0.018599|
|         734|  1.4359e+00|   -8.274881|   -2.804510|    0.002046|    0.029253|
|         735|  1.4361e+00|   -8.287113|   -2.816525|    0.002240|    0.039459|
|         736|  1.4362e+00|   -8.306052|   -2.835122|    0.002493|    0.049077|
|         737|  1.4363e+00|   -8.332199|   -2.860781|    0.002801|    0.057979|
|         738|  1.4365e+00|   -8.366358|   -2.894268|    0.003159|    0.066049|
|         739|  1.4367e+00|   -8.409748|   -2.936751|    0.003561|    0.073182|
|         740|  1.4367e+00|   -8.464237|   -2.990008|    0.004002|    0.079291|
|         741|  1.4363e+00|   -8.532749|   -3.056830|    0.004473|    0.084305|
|         742|  1.4359e+00|   -8.620112|   -3.141829|    0.004968|    0.088167|
|         743|  1.4356e+00|   -8.734936|   -3.253309|    0.005480|    0.090841|
|         744|  1.4354e+00|   -8.894228|   -3.408305|    0.006002|    0.092306|
|         745|  1.4352e+00|   -9.132902|   -3.649341|    0.006524|    0.092560|
|         746|  1.4349e+00|   -9.385548|   -4.053586|    0.007041|    0.091617|
|         747|  1.4352e+00|   -9.148914|   -3.802099|    0.007545|    0.089509|
|         748|  1.4350e+00|   -8.911957|   -3.504783|    0.008028|    0.086284|
|         749|  1.4347e+00|   -8.755943|   -3.328828|    0.008484|    0.082005|
|         750|  1.4345e+00|   -8.645254|   -3.208948|    0.008906|    0.076750|
|         751|  1.4342e+00|   -8.562415|   -3.120991|    0.009289|    0.070609|
|         752|  1.4338e+00|   -8.498605|   -3.054006|    0.009629|    0.063683|
|         753|  1.4336e+00|   -8.448887|   -3.002189|    0.009919|    0.056084|
|         754|  1.4335e+00|   -8.410269|   -2.962135|    0.010157|    0.047931|
|         755|  1.4336e+00|   -8.380839|   -2.931713|    0.010340|    0.039349|
|         756|  1.4336e+00|   -8.359330|   -2.909535|    0.010466|    0.030467|
|         757|  1.4338e+00|   -8.344902|   -2.894686|    0.010533|    0.021417|
|         758|  1.4339e+00|   -8.337006|   -2.886578|    0.010542|    0.012332|
|         759|  1.4339e+00|   -8.335317|   -2.884864|    0.010492|    0.003343|
|         760|  1.4337e+00|   -8.339691|   -2.889395|    0.010386|   -0.005425|
|         761|  1.4338e+00|   -8.350154|   -2.900207|    0.010224|   -0.013847|
|         762|  1.4339e+00|   -8.366900|   -2.917518|    0.010011|   -0.021810|
|         763|  1.4339e+00|   -8.390313|   -2.941758|    0.009750|   -0.029205|
|         764|  1.4341e+00|   -8.421016|   -2.973626|    0.009445|   -0.035936|
|         765|  1.4342e+00|   -8.459948|   -3.014190|    0.009101|   -0.041915|
|         766|  1.4342e+00|   -8.508514|   -3.065069|    0.008723|   -0.047070|
|         767|  1.4342e+00|   -8.568834|   -3.128777|    0.008318|   -0.051338|
|         768|  1.4342e+00|   -8.644221|   -3.209399|    0.007890|   -0.054672|
|         769|  1.4341e+00|   -8.740103|   -3.314084|    0.007448|   -0.057039|
|         770|  1.4338e+00|   -8.865891|   -3.456827|    0.006996|   -0.058418|
|         771|  1.4335e+00|   -9.037853|   -3.669583|    0.006542|   -0.058806|
|         772|  1.4333e+00|   -9.262497|   -4.013943|    0.006093|   -0.058212|
|         773|  1.4330e+00|   -9.314986|   -3.943365|    0.005654|   -0.056660|
|         774|  1.4328e+00|   -9.102014|   -3.631500|    0.005232|   -0.054185|
|         775|  1.4325e+00|   -8.923368|   -3.442933|    0.004833|   -0.050839|
|         776|  1.4322e+00|   -8.795895|   -3.315831|    0.004463|   -0.046681|
|         777|  1.4319e+00|   -8.701730|   -3.223244|    0.004125|   -0.041784|
|         778|  1.4322e+00|   -8.630005|   -3.152996|    0.003826|   -0.036229|
|         779|  1.4320e+00|   -8.574529|   -3.098709|    0.003568|   -0.030106|
|         780|  1.4318e+00|   -8.531584|   -3.056679|    0.003355|   -0.023511|
|         781|  1.4318e+00|   -8.498823|   -3.024603|    0.003190|   -0.016546|
|         782|  1.4320e+00|   -8.474716|   -3.000986|    0.003074|   -0.009317|
|         783|  1.4321e+00|   -8.458247|   -2.984843|    0.003008|   -0.001930|
|         784|  1.4332e+00|   -8.448759|   -2.975534|    0.002994|    0.005506|
|         785|  1.4336e+00|   -8.445854|   -2.972673|    0.003030|    0.012883|
|         786|  1.4335e+00|   -8.449348|   -2.976079|    0.003115|    0.020097|
|         787|  1.4335e+00|   -8.459247|   -2.985754|    0.003248|    0.027047|
|         788|  1.4335e+00|   -8.475747|   -3.001883|    0.003427|    0.033637|
|         789|  1.4334e+00|   -8.499260|   -3.024858|    0.003648|    0.039779|
|         790|  1.4333e+00|   -8.530462|   -3.055325|    0.003907|    0.045391|
|         791|  1.4330e+00|   -8.570393|   -3.094278|    0.004201|    0.050401|
|         792|  1.4328e+00|   -8.620622|   -3.143224|    0.004525|    0.054746|
|         793|  1.4327e+00|   -8.683553|   -3.204491|    0.004873|    0.058375|
|         794|  1.4326e+00|   -8.762993|   -3.281819|    0.005241|    0.061245|
|         795|  1.4324e+00|   -8.865280|   -3.381656|    0.005624|    0.063329|
|         796|  1.4322e+00|   -9.001422|   -3.516327|    0.006014|    0.064607|
|         797|  1.4322e+00|   -9.188338|   -3.713043|    0.006407|    0.065073|
|         798|  1.4322e+00|   -9.395330|   -4.031554|    0.006798|    0.064734|
|         799|  1.4320e+00|   -9.325788|   -4.088001|    0.007180|    0.063607|
|         800|  1.4319e+00|   -9.114840|   -3.758131|    0.007547|    0.061719|
|         801|  1.4318e+00|   -8.955130|   -3.555311|    0.007896|    0.059110|
|         802|  1.4319e+00|   -8.839084|   -3.420700|    0.008221|    0.055828|
|         803|  1.4321e+00|   -8.751695|   -3.323502|    0.008518|    0.051929|
|         804|  1.4324e+00|   -8.684141|   -3.250074|    0.008782|    0.047479|
|         805|  1.4327e+00|   -8.631264|   -3.193402|    0.009011|    0.042551|
|         806|  1.4328e+00|   -8.589891|   -3.149465|    0.009201|    0.037223|
|         807|  1.4330e+00|   -8.557975|   -3.115783|    0.009350|    0.031575|
|         808|  1.4333e+00|   -8.534154|   -3.090756|    0.009457|    0.025695|
|         809|  1.4334e+00|   -8.517511|   -3.073326|    0.009520|    0.019671|
|         810|  1.4336e+00|   -8.507435|   -3.062803|    0.009539|    0.013590|
|         811|  1.4338e+00|   -8.503545|   -3.058760|    0.009515|    0.007540|
|         812|  1.4340e+00|   -8.505639|   -3.060980|    0.009447|    0.001609|
|         813|  1.4341e+00|   -8.513680|   -3.069432|    0.009338|   -0.004122|
|         814|  1.4343e+00|   -8.527787|   -3.084261|    0.009189|   -0.009573|
|         815|  1.4345e+00|   -8.548244|   -3.105810|    0.009004|   -0.014670|
|         816|  1.4348e+00|   -8.575538|   -3.134664|    0.008785|   -0.019346|
|         817|  1.4350e+00|   -8.610408|   -3.171724|    0.008535|   -0.023539|
|         818|  1.4350e+00|   -8.653947|   -3.218353|    0.008259|   -0.027199|
|         819|  1.4352e+00|   -8.707760|   -3.276637|    0.007961|   -0.030279|
|         820|  1.4353e+00|   -8.774238|   -3.349870|    0.007646|   -0.032745|
|         821|  1.4356e+00|   -8.857030|   -3.443584|    0.007317|   -0.034570|
|         822|  1.4358e+00|   -8.961753|   -3.567887|    0.006981|   -0.035739|
|         823|  1.4356e+00|   -9.096305|   -3.743375|    0.006642|   -0.036245|
|         824|  1.4355e+00|   -9.262551|   -4.010075|    0.006304|   -0.036090|
|         825|  1.4355e+00|   -9.385362|   -4.174407|    0.005973|   -0.035287|
|         826|  1.4354e+00|   -9.301358|   -3.886516|    0.005654|   -0.033857|
|         827|  1.4354e+00|   -9.141262|   -3.672437|    0.005350|   -0.031830|
|         828|  1.4354e+00|   -9.009134|   -3.529929|    0.005067|   -0.029245|
|         829|  1.4354e+00|   -8.908327|   -3.427572|    0.004807|   -0.026146|
|         830|  1.4352e+00|   -8.830809|   -3.350526|    0.004575|   -0.022586|
|         831|  1.4351e+00|   -8.770538|   -3.291141|    0.004373|   -0.018623|
|         832|  1.4350e+00|   -8.723587|   -3.245057|    0.004204|   -0.014319|
|         833|  1.4350e+00|   -8.687398|   -3.209597|    0.004070|   -0.009743|
|         834|  1.4349e+00|   -8.660275|   -3.183038|    0.003972|   -0.004963|
|         835|  1.4347e+00|   -8.641082|   -3.164246|    0.003912|   -0.000050|
|         836|  1.4347e+00|   -8.629062|   -3.152472|    0.003890|    0.004922|
|         837|  1.4349e+00|   -8.623740|   -3.147249|    0.003906|    0.009881|
|         838|  1.4351e+00|   -8.624862|   -3.148323|    0.003959|    0.014757|
|         839|  1.4352e+00|   -8.632363|   -3.155630|    0.004047|    0.019482|
|         840|  1.4355e+00|   -8.646364|   -3.169284|    0.004171|    0.023989|
|         841|  1.4355e+00|   -8.667182|   -3.189593|    0.004326|    0.028218|
|         842|  1.4352e+00|   -8.695368|   -3.217092|    0.004511|    0.032112|
|         843|  1.4354e+00|   -8.731775|   -3.252621|    0.004723|    0.035621|
|         844|  1.4358e+00|   -8.777672|   -3.297449|    0.004958|    0.038700|
|         845|  1.4362e+00|   -8.834945|   -3.353509|    0.005212|    0.041312|
|         846|  1.4364e+00|   -8.906417|   -3.423829|    0.005482|    0.043426|
|         847|  1.4368e+00|   -8.996339|   -3.513424|    0.005764|    0.045020|
[...]
|        1771|  1.6522e+00|   -9.654058|   -4.496877|    0.006568|    0.009411|
|        1772|  1.6527e+00|   -9.654361|   -4.496915|    0.006568|    0.009413|
|        1773|  1.6531e+00|   -9.654661|   -4.496953|    0.006567|    0.009415|
|        1774|  1.6536e+00|   -9.654958|   -4.496990|    0.006567|    0.009418|
|        1775|  1.6540e+00|   -9.655251|   -4.497026|    0.006567|    0.009421|
|        1776|  1.6541e+00|   -9.655541|   -4.497062|    0.006566|    0.009424|
|        1777|  1.6544e+00|   -9.655827|   -4.497099|    0.006566|    0.009427|
|        1778|  1.6547e+00|   -9.656109|   -4.497137|    0.006566|    0.009431|
|        1779|  1.6549e+00|   -9.656388|   -4.497176|    0.006566|    0.009434|
|        1780|  1.6550e+00|   -9.656663|   -4.497217|    0.006566|    0.009438|
|        1781|  1.6551e+00|   -9.656935|   -4.497258|    0.006566|    0.009442|
|        1782|  1.6552e+00|   -9.657204|   -4.497302|    0.006566|    0.009445|
|        1783|  1.6554e+00|   -9.657470|   -4.497347|    0.006567|    0.009449|
|        1784|  1.6557e+00|   -9.657733|   -4.497393|    0.006567|    0.009452|
|        1785|  1.6559e+00|   -9.657994|   -4.497441|    0.006567|    0.009455|
|        1786|  1.6562e+00|   -9.658252|   -4.497489|    0.006568|    0.009458|
|        1787|  1.6564e+00|   -9.658509|   -4.497538|    0.006568|    0.009461|
|        1788|  1.6566e+00|   -9.658763|   -4.497587|    0.006569|    0.009463|
|        1789|  1.6566e+00|   -9.659017|   -4.497637|    0.006570|    0.009465|
|        1790|  1.6568e+00|   -9.659270|   -4.497685|    0.006570|    0.009467|
|        1791|  1.6570e+00|   -9.659522|   -4.497733|    0.006571|    0.009468|
|        1792|  1.6570e+00|   -9.659773|   -4.497780|    0.006571|    0.009469|
|        1793|  1.6572e+00|   -9.660025|   -4.497826|    0.006572|    0.009470|
|        1794|  1.6573e+00|   -9.660277|   -4.497870|    0.006573|    0.009470|
|        1795|  1.6573e+00|   -9.660530|   -4.497913|    0.006573|    0.009469|
|        1796|  1.6576e+00|   -9.660784|   -4.497954|    0.006574|    0.009469|
|        1797|  1.6575e+00|   -9.661040|   -4.497994|    0.006574|    0.009468|
|        1798|  1.6575e+00|   -9.661298|   -4.498033|    0.006575|    0.009466|
|        1799|  1.6575e+00|   -9.661557|   -4.498071|    0.006576|    0.009465|
|        1800|  1.6575e+00|   -9.661819|   -4.498108|    0.006576|    0.009463|
|        1801|  1.6575e+00|   -9.662084|   -4.498145|    0.006576|    0.009460|
|        1802|  1.6575e+00|   -9.662351|   -4.498182|    0.006577|    0.009458|
|        1803|  1.6576e+00|   -9.662622|   -4.498218|    0.006577|    0.009455|
|        1804|  1.6576e+00|   -9.662895|   -4.498255|    0.006577|    0.009453|
|        1805|  1.6576e+00|   -9.663172|   -4.498293|    0.006577|    0.009450|
|        1806|  1.6578e+00|   -9.663452|   -4.498331|    0.006577|    0.009447|
|        1807|  1.6578e+00|   -9.663735|   -4.498370|    0.006577|    0.009444|
|        1808|  1.6578e+00|   -9.664022|   -4.498411|    0.006577|    0.009441|
|        1809|  1.6578e+00|   -9.664311|   -4.498452|    0.006577|    0.009438|
|        1810|  1.6579e+00|   -9.664602|   -4.498494|    0.006577|    0.009436|
|        1811|  1.6582e+00|   -9.664896|   -4.498537|    0.006577|    0.009433|
|        1812|  1.6582e+00|   -9.665192|   -4.498580|    0.006576|    0.009431|
|        1813|  1.6582e+00|   -9.665490|   -4.498624|    0.006576|    0.009429|
|        1814|  1.6583e+00|   -9.665789|   -4.498668|    0.006576|    0.009427|
|        1815|  1.6583e+00|   -9.666089|   -4.498712|    0.006575|    0.009426|
|        1816|  1.6585e+00|   -9.666390|   -4.498756|    0.006575|    0.009424|
|        1817|  1.6587e+00|   -9.666691|   -4.498799|    0.006574|    0.009423|
|        1818|  1.6587e+00|   -9.666993|   -4.498841|    0.006574|    0.009423|
|        1819|  1.6587e+00|   -9.667293|   -4.498883|    0.006574|    0.009423|
|        1820|  1.6587e+00|   -9.667594|   -4.498924|    0.006573|    0.009423|
|        1821|  1.6587e+00|   -9.667893|   -4.498964|    0.006573|    0.009423|
|        1822|  1.6587e+00|   -9.668190|   -4.499004|    0.006572|    0.009423|
|        1823|  1.6587e+00|   -9.668486|   -4.499042|    0.006572|    0.009424|
|        1824|  1.6587e+00|   -9.668780|   -4.499080|    0.006571|    0.009426|
|        1825|  1.6587e+00|   -9.669073|   -4.499117|    0.006571|    0.009427|
|        1826|  1.6587e+00|   -9.669363|   -4.499154|    0.006571|    0.009429|
|        1827|  1.6588e+00|   -9.669651|   -4.499191|    0.006571|    0.009431|
|        1828|  1.6588e+00|   -9.669937|   -4.499227|    0.006570|    0.009433|
|        1829|  1.6588e+00|   -9.670221|   -4.499264|    0.006570|    0.009435|
|        1830|  1.6588e+00|   -9.670503|   -4.499301|    0.006570|    0.009437|
|        1831|  1.6588e+00|   -9.670782|   -4.499339|    0.006570|    0.009440|
|        1832|  1.6588e+00|   -9.671060|   -4.499377|    0.006570|    0.009442|
|        1833|  1.6588e+00|   -9.671335|   -4.499416|    0.006570|    0.009445|
|        1834|  1.6588e+00|   -9.671609|   -4.499456|    0.006570|    0.009447|
|        1835|  1.6589e+00|   -9.671881|   -4.499497|    0.006571|    0.009450|
|        1836|  1.6592e+00|   -9.672151|   -4.499538|    0.006571|    0.009452|
|        1837|  1.6593e+00|   -9.672420|   -4.499580|    0.006571|    0.009454|
|        1838|  1.6593e+00|   -9.672688|   -4.499622|    0.006571|    0.009456|
|        1839|  1.6594e+00|   -9.672955|   -4.499665|    0.006572|    0.009458|
|        1840|  1.6594e+00|   -9.673221|   -4.499708|    0.006572|    0.009460|
|        1841|  1.6594e+00|   -9.673486|   -4.499751|    0.006573|    0.009461|
|        1842|  1.6594e+00|   -9.673751|   -4.499794|    0.006573|    0.009463|
|        1843|  1.6595e+00|   -9.674016|   -4.499837|    0.006573|    0.009464|
|        1844|  1.6595e+00|   -9.674280|   -4.499879|    0.006574|    0.009464|
|        1845|  1.6596e+00|   -9.674545|   -4.499921|    0.006574|    0.009465|
|        1846|  1.6597e+00|   -9.674810|   -4.499963|    0.006575|    0.009465|
|        1847|  1.6600e+00|   -9.675076|   -4.500003|    0.006575|    0.009465|
|        1848|  1.6602e+00|   -9.675343|   -4.500043|    0.006576|    0.009465|
|        1849|  1.6605e+00|   -9.675610|   -4.500082|    0.006576|    0.009464|
|        1850|  1.6606e+00|   -9.675879|   -4.500121|    0.006576|    0.009463|
|        1851|  1.6606e+00|   -9.676148|   -4.500159|    0.006577|    0.009462|
|        1852|  1.6606e+00|   -9.676420|   -4.500196|    0.006577|    0.009461|
|        1853|  1.6606e+00|   -9.676693|   -4.500234|    0.006577|    0.009460|
|        1854|  1.6607e+00|   -9.676967|   -4.500271|    0.006578|    0.009458|
|        1855|  1.6607e+00|   -9.677244|   -4.500307|    0.006578|    0.009457|
|        1856|  1.6607e+00|   -9.677522|   -4.500344|    0.006578|    0.009455|
|        1857|  1.6607e+00|   -9.677802|   -4.500381|    0.006578|    0.009453|
|        1858|  1.6607e+00|   -9.678083|   -4.500418|    0.006578|    0.009451|
|        1859|  1.6607e+00|   -9.678367|   -4.500456|    0.006578|    0.009449|
|        1860|  1.6609e+00|   -9.678652|   -4.500494|    0.006578|    0.009447|
|        1861|  1.6611e+00|   -9.678939|   -4.500532|    0.006578|    0.009446|
|        1862|  1.6613e+00|   -9.679227|   -4.500570|    0.006578|    0.009444|
|        1863|  1.6615e+00|   -9.679517|   -4.500609|    0.006578|    0.009442|
|        1864|  1.6618e+00|   -9.679808|   -4.500648|    0.006578|    0.009441|
|        1865|  1.6620e+00|   -9.680099|   -4.500687|    0.006578|    0.009439|
|        1866|  1.6622e+00|   -9.680392|   -4.500726|    0.006577|    0.009438|
|        1867|  1.6623e+00|   -9.680685|   -4.500765|    0.006577|    0.009437|
|        1868|  1.6625e+00|   -9.680978|   -4.500804|    0.006577|    0.009436|
|        1869|  1.6627e+00|   -9.681272|   -4.500843|    0.006577|    0.009435|
|        1870|  1.6630e+00|   -9.681565|   -4.500881|    0.006576|    0.009435|
|        1871|  1.6630e+00|   -9.681858|   -4.500919|    0.006576|    0.009434|
|        1872|  1.6632e+00|   -9.682151|   -4.500957|    0.006576|    0.009434|
|        1873|  1.6633e+00|   -9.682443|   -4.500994|    0.006575|    0.009434|
|        1874|  1.6635e+00|   -9.682734|   -4.501031|    0.006575|    0.009435|
|        1875|  1.6637e+00|   -9.683024|   -4.501067|    0.006575|    0.009435|
|        1876|  1.6639e+00|   -9.683313|   -4.501103|    0.006575|    0.009436|
|        1877|  1.6641e+00|   -9.683601|   -4.501139|    0.006574|    0.009437|
|        1878|  1.6643e+00|   -9.683888|   -4.501174|    0.006574|    0.009438|
|        1879|  1.6646e+00|   -9.684174|   -4.501210|    0.006574|    0.009439|
|        1880|  1.6648e+00|   -9.684458|   -4.501245|    0.006574|    0.009441|
|        1881|  1.6650e+00|   -9.684741|   -4.501281|    0.006574|    0.009442|
|        1882|  1.6651e+00|   -9.685023|   -4.501316|    0.006574|    0.009444|
|        1883|  1.6654e+00|   -9.685304|   -4.501352|    0.006574|    0.009445|
|        1884|  1.6655e+00|   -9.685583|   -4.501389|    0.006574|    0.009447|
|        1885|  1.6655e+00|   -9.685862|   -4.501425|    0.006574|    0.009449|
|        1886|  1.6655e+00|   -9.686139|   -4.501462|    0.006574|    0.009450|
|        1887|  1.6657e+00|   -9.686416|   -4.501500|    0.006574|    0.009452|
|        1888|  1.6659e+00|   -9.686692|   -4.501537|    0.006574|    0.009454|
|        1889|  1.6661e+00|   -9.686967|   -4.501575|    0.006574|    0.009455|
|        1890|  1.6662e+00|   -9.687241|   -4.501614|    0.006575|    0.009457|
|        1891|  1.6662e+00|   -9.687515|   -4.501652|    0.006575|    0.009458|
|        1892|  1.6662e+00|   -9.687788|   -4.501691|    0.006575|    0.009459|
|        1893|  1.6662e+00|   -9.688061|   -4.501730|    0.006575|    0.009460|
|        1894|  1.6662e+00|   -9.688335|   -4.501769|    0.006576|    0.009461|
|        1895|  1.6663e+00|   -9.688608|   -4.501808|    0.006576|    0.009462|
|        1896|  1.6663e+00|   -9.688881|   -4.501847|    0.006576|    0.009463|
|        1897|  1.6663e+00|   -9.689154|   -4.501885|    0.006577|    0.009463|
|        1898|  1.6663e+00|   -9.689428|   -4.501924|    0.006577|    0.009463|
|        1899|  1.6663e+00|   -9.689702|   -4.501962|    0.006577|    0.009464|
|        1900|  1.6663e+00|   -9.689977|   -4.501999|    0.006578|    0.009463|
|        1901|  1.6663e+00|   -9.690252|   -4.502037|    0.006578|    0.009463|
|        1902|  1.6663e+00|   -9.690528|   -4.502074|    0.006578|    0.009463|
|        1903|  1.6663e+00|   -9.690805|   -4.502110|    0.006579|    0.009462|
|        1904|  1.6663e+00|   -9.691083|   -4.502147|    0.006579|    0.009462|
|        1905|  1.6664e+00|   -9.691362|   -4.502183|    0.006579|    0.009461|
|        1906|  1.6664e+00|   -9.691641|   -4.502219|    0.006579|    0.009460|
|        1907|  1.6666e+00|   -9.691922|   -4.502254|    0.006579|    0.009459|
|        1908|  1.6667e+00|   -9.692204|   -4.502290|    0.006580|    0.009458|
|        1909|  1.6667e+00|   -9.692487|   -4.502326|    0.006580|    0.009456|
|        1910|  1.6666e+00|   -9.692771|   -4.502361|    0.006580|    0.009455|
|        1911|  1.6667e+00|   -9.693055|   -4.502397|    0.006580|    0.009454|
|        1912|  1.6668e+00|   -9.693341|   -4.502433|    0.006580|    0.009453|
|        1913|  1.6671e+00|   -9.693628|   -4.502468|    0.006580|    0.009452|
|        1914|  1.6671e+00|   -9.693915|   -4.502504|    0.006580|    0.009450|
|        1915|  1.6671e+00|   -9.694203|   -4.502540|    0.006580|    0.009449|
|        1916|  1.6671e+00|   -9.694492|   -4.502576|    0.006580|    0.009448|
|        1917|  1.6673e+00|   -9.694781|   -4.502612|    0.006580|    0.009447|
|        1918|  1.6675e+00|   -9.695070|   -4.502647|    0.006579|    0.009446|
|        1919|  1.6675e+00|   -9.695360|   -4.502683|    0.006579|    0.009446|
|        1920|  1.6675e+00|   -9.695650|   -4.502719|    0.006579|    0.009445|
|        1921|  1.6675e+00|   -9.695939|   -4.502754|    0.006579|    0.009444|
|        1922|  1.6675e+00|   -9.696229|   -4.502790|    0.006579|    0.009444|
|        1923|  1.6675e+00|   -9.696519|   -4.502825|    0.006579|    0.009444|
|        1924|  1.6675e+00|   -9.696808|   -4.502860|    0.006578|    0.009444|
|        1925|  1.6678e+00|   -9.697097|   -4.502894|    0.006578|    0.009444|
|        1926|  1.6678e+00|   -9.697385|   -4.502929|    0.006578|    0.009444|
|        1927|  1.6678e+00|   -9.697672|   -4.502963|    0.006578|    0.009444|
|        1928|  1.6678e+00|   -9.697960|   -4.502997|    0.006578|    0.009445|
|        1929|  1.6678e+00|   -9.698246|   -4.503031|    0.006577|    0.009445|
|        1930|  1.6678e+00|   -9.698532|   -4.503065|    0.006577|    0.009446|
|        1931|  1.6678e+00|   -9.698817|   -4.503099|    0.006577|    0.009447|
|        1932|  1.6678e+00|   -9.699101|   -4.503133|    0.006577|    0.009448|
|        1933|  1.6680e+00|   -9.699385|   -4.503167|    0.006577|    0.009449|
|        1934|  1.6681e+00|   -9.699667|   -4.503200|    0.006577|    0.009450|
|        1935|  1.6683e+00|   -9.699950|   -4.503234|    0.006577|    0.009451|
|        1936|  1.6683e+00|   -9.700231|   -4.503269|    0.006577|    0.009452|
|        1937|  1.6683e+00|   -9.700512|   -4.503303|    0.006577|    0.009453|
|        1938|  1.6683e+00|   -9.700793|   -4.503338|    0.006577|    0.009454|
|        1939|  1.6683e+00|   -9.701073|   -4.503372|    0.006577|    0.009455|
|        1940|  1.6686e+00|   -9.701353|   -4.503407|    0.006577|    0.009457|
|        1941|  1.6688e+00|   -9.701632|   -4.503443|    0.006577|    0.009458|
|        1942|  1.6689e+00|   -9.701911|   -4.503478|    0.006578|    0.009459|
|        1943|  1.6691e+00|   -9.702190|   -4.503513|    0.006578|    0.009460|
|        1944|  1.6691e+00|   -9.702469|   -4.503549|    0.006578|    0.009461|
|        1945|  1.6690e+00|   -9.702748|   -4.503585|    0.006578|    0.009461|
|        1946|  1.6690e+00|   -9.703027|   -4.503621|    0.006578|    0.009462|
|        1947|  1.6690e+00|   -9.703306|   -4.503656|    0.006579|    0.009463|
|        1948|  1.6690e+00|   -9.703585|   -4.503692|    0.006579|    0.009463|
|        1949|  1.6691e+00|   -9.703865|   -4.503728|    0.006579|    0.009464|
|        1950|  1.6691e+00|   -9.704144|   -4.503764|    0.006579|    0.009464|
|        1951|  1.6691e+00|   -9.704425|   -4.503799|    0.006580|    0.009464|
|        1952|  1.6691e+00|   -9.704705|   -4.503834|    0.006580|    0.009464|
|        1953|  1.6691e+00|   -9.704986|   -4.503869|    0.006580|    0.009464|
|        1954|  1.6693e+00|   -9.705268|   -4.503904|    0.006580|    0.009464|
|        1955|  1.6695e+00|   -9.705550|   -4.503939|    0.006580|    0.009463|
|        1956|  1.6698e+00|   -9.705832|   -4.503974|    0.006581|    0.009463|
|        1957|  1.6700e+00|   -9.706115|   -4.504008|    0.006581|    0.009463|
|        1958|  1.6702e+00|   -9.706399|   -4.504042|    0.006581|    0.009462|
|        1959|  1.6703e+00|   -9.706683|   -4.504076|    0.006581|    0.009461|
|        1960|  1.6703e+00|   -9.706968|   -4.504110|    0.006581|    0.009461|
|        1961|  1.6706e+00|   -9.707254|   -4.504144|    0.006581|    0.009460|
|        1962|  1.6708e+00|   -9.707540|   -4.504178|    0.006581|    0.009459|
|        1963|  1.6709e+00|   -9.707826|   -4.504212|    0.006581|    0.009458|
|        1964|  1.6712e+00|   -9.708113|   -4.504245|    0.006582|    0.009458|
|        1965|  1.6714e+00|   -9.708401|   -4.504279|    0.006582|    0.009457|
|        1966|  1.6717e+00|   -9.708689|   -4.504313|    0.006582|    0.009456|
|        1967|  1.6718e+00|   -9.708977|   -4.504346|    0.006582|    0.009455|
|        1968|  1.6718e+00|   -9.709266|   -4.504379|    0.006581|    0.009454|
|        1969|  1.6718e+00|   -9.709554|   -4.504413|    0.006581|    0.009454|
|        1970|  1.6719e+00|   -9.709843|   -4.504446|    0.006581|    0.009453|
|        1971|  1.6719e+00|   -9.710132|   -4.504480|    0.006581|    0.009453|
|        1972|  1.6719e+00|   -9.710420|   -4.504513|    0.006581|    0.009452|
|        1973|  1.6719e+00|   -9.710709|   -4.504546|    0.006581|    0.009452|
|        1974|  1.6720e+00|   -9.710998|   -4.504579|    0.006581|    0.009452|
|        1975|  1.6720e+00|   -9.711286|   -4.504612|    0.006581|    0.009451|
|        1976|  1.6720e+00|   -9.711574|   -4.504644|    0.006581|    0.009451|
|        1977|  1.6721e+00|   -9.711862|   -4.504677|    0.006581|    0.009451|
|        1978|  1.6723e+00|   -9.712150|   -4.504709|    0.006581|    0.009451|
|        1979|  1.6723e+00|   -9.712437|   -4.504741|    0.006580|    0.009452|
|        1980|  1.6723e+00|   -9.712724|   -4.504774|    0.006580|    0.009452|
|        1981|  1.6724e+00|   -9.713010|   -4.504806|    0.006580|    0.009452|
|        1982|  1.6724e+00|   -9.713297|   -4.504838|    0.006580|    0.009453|
|        1983|  1.6725e+00|   -9.713582|   -4.504870|    0.006580|    0.009453|
|        1984|  1.6727e+00|   -9.713868|   -4.504902|    0.006580|    0.009454|
|        1985|  1.6729e+00|   -9.714153|   -4.504934|    0.006580|    0.009455|
|        1986|  1.6732e+00|   -9.714437|   -4.504966|    0.006580|    0.009455|
|        1987|  1.6734e+00|   -9.714721|   -4.504998|    0.006580|    0.009456|
|        1988|  1.6736e+00|   -9.715005|   -4.505030|    0.006580|    0.009457|
|        1989|  1.6737e+00|   -9.715289|   -4.505063|    0.006580|    0.009458|
|        1990|  1.6737e+00|   -9.715573|   -4.505095|    0.006580|    0.009458|
|        1991|  1.6737e+00|   -9.715856|   -4.505128|    0.006580|    0.009459|
|        1992|  1.6737e+00|   -9.716139|   -4.505160|    0.006580|    0.009460|
|        1993|  1.6737e+00|   -9.716422|   -4.505193|    0.006580|    0.009461|
|        1994|  1.6737e+00|   -9.716706|   -4.505226|    0.006580|    0.009461|
|        1995|  1.6737e+00|   -9.716989|   -4.505259|    0.006580|    0.009462|
|        1996|  1.6737e+00|   -9.717272|   -4.505292|    0.006581|    0.009463|
|        1997|  1.6737e+00|   -9.717555|   -4.505325|    0.006581|    0.009463|
|        1998|  1.6737e+00|   -9.717839|   -4.505358|    0.006581|    0.009464|
|        1999|  1.6737e+00|   -9.718122|   -4.505392|    0.006581|    0.009464|

----------------------------- Solver Exit -------------------------------

Maximum number of iterations reached (ITER = 2000) before convergence.
+-----------------------------------------------------------------------+
|      Convergence Field     |     Value    |   Criterion  |  Converged |
+-----------------------------------------------------------------------+
|                    rms[Rho]|      -9.71812|         < -12|          No|
+-----------------------------------------------------------------------+
-------------------------------------------------------------------------
+-----------------------------------------------------------------------+
|        File Writing Summary       |              Filename             |
+-----------------------------------------------------------------------+
|SU2 binary restart                 |restart_flow_cpu.dat               |
|Paraview                           |flow_cpu.vtu                       |
+-----------------------------------------------------------------------+

--------------------------- Finalizing Solver ---------------------------
Deleted CNumerics container.
Deleted CIntegration container.
Deleted CSolver container.
Deleted CIteration container.
Deleted CInterface container.
Deleted CGeometry container.
Deleted CFreeFormDefBox class.
Deleted CSurfaceMovement class.
Deleted CVolumetricMovement class.
Deleted CConfig container.
Deleted nInst container.
Deleted COutput class.
-------------------------------------------------------------------------

------------------------- Exit Success (SU2_CFD) ------------------------

CPU elapsed: 55:47.79
