
-------------------------------------------------------------------------
|    ___ _   _ ___                                                      |
|   / __| | | |_  )   Release 8.3.0 "Harrier"                           |
|   \__ \ |_| |/ /                                                      |
|   |___/\___//___|   Suite (Computational Fluid Dynamics Code)         |
|                                                                       |
-------------------------------------------------------------------------
| SU2 Project Website: https://su2code.github.io                        |
|                                                                       |
| The SU2 Project is maintained by the SU2 Foundation                   |
| (http://su2foundation.org)                                            |
-------------------------------------------------------------------------
| Copyright 2012-2025, SU2 Contributors                                 |
|                                                                       |
| SU2 is free software; you can redistribute it and/or                  |
| modify it under the terms of the GNU Lesser General Public            |
| License as published by the Free Software Foundation; either          |
| version 2.1 of the License, or (at your option) any later version.    |
|                                                                       |
| SU2 is distributed in the hope that it will be useful,                |
| but WITHOUT ANY WARRANTY; without even the implied warranty of        |
| MERCHANTABILITY or FITNESS FOR A PARTICULAR PURPOSE. See the GNU      |
| Lesser General Public License for more details.                       |
|                                                                       |
| You should have received a copy of the GNU Lesser General Public      |
| License along with SU2. If not, see <http://www.gnu.org/licenses/>.   |
-------------------------------------------------------------------------

Parsing config file for zone 0

----------------- Physical Case Definition ( Zone 0 ) -------------------
Compressible Laminar Navier-Stokes' equations.
Mach number: 0.05.
Angle of attack (AoA): 0 deg, and angle of sideslip (AoS): 0 deg.
Reynolds number: 1000. Reference length 1.
Performing a dynamic mesh simulation: no direct movement.
No restart solution, use the values at infinity (freestream).
Dimensional simulation.
The reference area is 1 m^2.
The semi-span will be computed using the max y(3D) value.
The reference length is 1 m.
Surface(s) where the force coefficients are evaluated and 
their reference origin for moment computation: 
   - y_plus (0.25, 0, 0).
   - x_minus (0.25, 0, 0).
   - x_plus (0.25, 0, 0).
   - y_minus (0.25, 0, 0) m.
Surface(s) plotted in the output file: y_plus, x_minus, x_plus, y_minus.
Surface(s) in motion: y_plus.
Input mesh file name: mesh.su2

--------------- Space Numerical Integration ( Zone 0 ) ------------------
Roe (with entropy fix = 0.001) solver for the flow inviscid terms.
Standard Roe without low-dissipation function.
Second order integration in space, with slope limiter.
No slope-limiting method. 
Average of gradients with correction (viscous flow terms).
Gradient for upwind reconstruction: inverse-distance weighted Least-Squares.
Gradient for viscous and source terms: inverse-distance weighted Least-Squares.

--------------- Time Numerical Integration  ( Zone 0 ) ------------------
Local time stepping (steady state simulation).
Euler implicit method for the flow equations.
BCGSTAB is used for solving the linear system.
Using a Jacobi preconditioning.
Convergence criteria of the linear solver: 1e-06.
Max number of linear iterations: 50.
No CFL adaptation.
Courant-Friedrichs-Lewy number:       20

------------------ Convergence Criteria  ( Zone 0 ) ---------------------
Maximum number of solver subiterations: 2000.
Begin convergence monitoring at iteration 10.
Residual minimum value: 1e-12.
Cauchy series min. value: 1e-12.
Number of Cauchy elements: 100.
Begin windowed time average at iteration 0.

-------------------- Output Information ( Zone 0 ) ----------------------
File writing frequency: 
+------------------------------------+
|                     File| Frequency|
+------------------------------------+
|                  RESTART|      2000|
|                 PARAVIEW|      2000|
+------------------------------------+
Writing the convergence history file every 1 inner iterations.
Writing the screen convergence history every 1 inner iterations.
The tabular file format is CSV (.csv).
Convergence history file name: history_gpu.
Forces breakdown file name: forces_breakdown.dat.
Surface file name: surface_flow_gpu.
Volume file name: flow_gpu.
Restart file name: restart_flow_gpu.

------------- Config File Boundary Information ( Zone 0 ) ---------------
+-----------------------------------------------------------------------+
|                        Marker Type|                        Marker Name|
+-----------------------------------------------------------------------+
|                     Heat flux wall|                             y_plus|
|                                   |                            x_minus|
|                                   |                             x_plus|
|                                   |                            y_minus|
+-----------------------------------------------------------------------+

-------------------- Output Preprocessing ( Zone 0 ) --------------------

WARNING: SURFACE_PRESSURE_DROP can only be computed for at least 2 surfaces (outlet, inlet, ...)

Screen output fields: INNER_ITER, WALL_TIME, RMS_DENSITY, RMS_ENERGY, LIFT, DRAG
History output group(s): ITER, RMS_RES
Convergence field(s): RMS_DENSITY
Warning: No (valid) fields chosen for time convergence monitoring. Time convergence monitoring inactive.
Volume output fields: COORDINATES, SOLUTION, PRIMITIVE, GRID_VELOCITY

------------------- Geometry Preprocessing ( Zone 0 ) -------------------
Two dimensional problem.
16641 grid points.
16384 volume elements.
4 surface markers.
128 boundary elements in index 0 (Marker = y_minus).
128 boundary elements in index 1 (Marker = x_plus).
128 boundary elements in index 2 (Marker = y_plus).
128 boundary elements in index 3 (Marker = x_minus).
16384 quadrilaterals.
Setting point connectivity.
Renumbering points (Reverse Cuthill McKee Ordering).
Recomputing point connectivity.
Setting element connectivity.
Checking the numerical grid orientation.
All volume elements are correctly oriented.
All surface elements are correctly oriented.
Identifying edges and vertices.
Setting the control volume structure.
Area of the computational grid: 1.
Searching for the closest normal neighbors to the surfaces.
Storing a mapping from global to local point index.
Compute the surface curvature.
Max K: 181.019. Mean K: 2.8065. Standard deviation K: 22.3641.
Checking for periodicity.
Computing mesh quality statistics for the dual control volumes.
+--------------------------------------------------------------+
|           Mesh Quality Metric|        Minimum|        Maximum|
+--------------------------------------------------------------+
|    Orthogonality Angle (deg.)|             90|             90|
|     CV Face Area Aspect Ratio|              1|              2|
|           CV Sub-Volume Ratio|              1|              1|
+--------------------------------------------------------------+
Finding max control volume width.
Wetted area = 4 m.
Area projection in the x-plane = 1 m, y-plane = 1 m.
Max. coordinate in the x-direction = 1 m, y-direction = 1 m.
Min. coordinate in the x-direction = 0 m, y-direction = 0 m.
Computing wall distances.

-------------------- Solver Preprocessing ( Zone 0 ) --------------------
Viscous flow: Computing pressure using the ideal gas law
based on the free-stream temperature and a density computed
from the Reynolds number.
Force coefficients computed using MACH_MOTION.

-- Models:
+------------------------------------------------------------------------------+
|          Viscosity Model|        Conductivity Model|              Fluid Model|
+------------------------------------------------------------------------------+
|               SUTHERLAND|          CONSTANT_PRANDTL|             STANDARD_AIR|
+------------------------------------------------------------------------------+
-- Fluid properties:
+------------------------------------------------------------------------------+
|                  Name|    Dim. value|    Ref. value|      Unit|Non-dim. value|
+------------------------------------------------------------------------------+
|        Ref. Viscosity|     1.716e-05|             1|   N.s/m^2|     1.716e-05|
|      Sutherland Temp.|        273.15|             1|         K|        273.15|
|     Sutherland Const.|         110.4|             1|         K|         110.4|
+------------------------------------------------------------------------------+
|        Prandtl (Lam.)|             -|             -|         -|          0.72|
|       Prandtl (Turb.)|             -|             -|         -|           0.9|
+------------------------------------------------------------------------------+
|          Gas Constant|       287.058|             1|  N.m/kg.K|       287.058|
|      Spec. Heat Ratio|             -|             -|         -|           1.4|
+------------------------------------------------------------------------------+
-- Initial and free-stream conditions:
+------------------------------------------------------------------------------+
|                  Name|    Dim. value|    Ref. value|      Unit|Non-dim. value|
+------------------------------------------------------------------------------+
|       Static Pressure|       43.4923|             1|        Pa|       43.4923|
|               Density|   0.000525805|             1|    kg/m^3|   0.000525805|
|           Temperature|        288.15|             1|         K|        288.15|
|          Total Energy|        206934|             1|   m^2/s^2|        206934|
|            Velocity-X|       17.0149|             1|       m/s|       17.0149|
|            Velocity-Y|             0|             1|       m/s|             0|
|    Velocity Magnitude|       17.0149|             1|       m/s|       17.0149|
+------------------------------------------------------------------------------+
|             Viscosity|    1.7893e-05|             1|   N.s/m^2|    1.7893e-05|
|          Conductivity|             -|             1|   W/m^2.K|             -|
+------------------------------------------------------------------------------+
|           Mach Number|             -|             -|         -|          0.05|
|       Reynolds Number|             -|             -|         -|          1000|
+------------------------------------------------------------------------------+
Initialize Jacobian structure (Navier-Stokes). MG level: 0.

------------------- Numerics Preprocessing ( Zone 0 ) -------------------

----------------- Integration Preprocessing ( Zone 0 ) ------------------

------------------- Iteration Preprocessing ( Zone 0 ) ------------------
Euler/Navier-Stokes/RANS fluid iteration.
Setting dynamic mesh structure for zone 1.

 Setting the moving wall velocities.
 Storing grid velocity for marker: y_plus.
 Translational velocity: (33.179, 0, 0) m/s.
 Angular velocity: (0, 0, 0) rad/s about origin: (0, 0, 0).

------------------------------ Begin Solver -----------------------------

Simulation Run using the Single-zone Driver
 Storing grid velocity for marker: y_plus.
 Translational velocity: (33.179, 0, 0) m/s.
 Angular velocity: (0, 0, 0) rad/s about origin: (0, 0, 0).
WARNING: SU2 was not compiled for an AVX-capable architecture. Performance could be better,
         see https://su2code.github.io/docs_v7/Build-SU2-Linux-MacOS/#compiler-optimizations
+-----------------------------------------------------------------------------+
|  Inner_Iter|   Time(sec)|    rms[Rho]|   rms[RhoE]|          CL|          CD|
+-----------------------------------------------------------------------------+
|           0|  7.9340e-01|   -5.062919|    0.398955|   -0.382065|   30.596821|
|           1|  1.0106e+00|   -5.387212|    0.076954|   -0.241942|   32.364367|
|           2|  1.1196e+00|   -5.499906|   -0.034370|   -0.098818|   26.290268|
|           3|  1.1360e+00|   -5.579455|   -0.116639|   -0.021255|   21.445879|
|           4|  1.1632e+00|   -5.735012|   -0.273606|    0.002099|   19.660621|
|           5|  1.1919e+00|   -5.812307|   -0.350687|    0.002728|   19.546124|
|           6|  1.2056e+00|   -5.846136|   -0.384211|    0.000056|   19.768701|
|           7|  1.1832e+00|   -5.872867|   -0.410911|   -0.000676|   19.866486|
|           8|  1.1734e+00|   -5.899731|   -0.437852|   -0.000195|   19.857909|
|           9|  1.1544e+00|   -5.935833|   -0.474037|    0.000391|   19.828660|
|          10|  1.1444e+00|   -5.992038|   -0.530352|    0.000836|   19.805021|
|          11|  1.1426e+00|   -6.083654|   -0.622139|    0.001259|   19.775909|
|          12|  1.1432e+00|   -6.235886|   -0.774589|    0.001734|   19.723757|
|          13|  1.1581e+00|   -6.497460|   -1.035941|    0.002260|   19.630024|
|          14|  1.1690e+00|   -6.704663|   -1.238892|    0.002859|   19.469586|
|          15|  1.1809e+00|   -6.411317|   -0.947632|    0.003557|   19.206994|
|          16|  1.1888e+00|   -6.216812|   -0.754128|    0.004366|   18.796573|
|          17|  1.1811e+00|   -6.108516|   -0.646191|    0.005341|   18.185074|
|          18|  1.1762e+00|   -6.046813|   -0.584633|    0.006552|   17.316362|
|          19|  1.1748e+00|   -6.010873|   -0.548752|    0.008055|   16.138171|
|          20|  1.1706e+00|   -5.987605|   -0.525523|    0.009886|   14.610377|
|          21|  1.1659e+00|   -5.968647|   -0.506613|    0.012041|   12.713416|
|          22|  1.1617e+00|   -5.949953|   -0.487984|    0.014478|   10.455126|
|          23|  1.1564e+00|   -5.931220|   -0.469317|    0.017106|    7.874315|
|          24|  1.1644e+00|   -5.914408|   -0.452548|    0.019800|    5.039897|
|          25|  1.1650e+00|   -5.902095|   -0.440240|    0.022403|    2.045324|
|          26|  1.1690e+00|   -5.896429|   -0.434544|    0.024751|   -1.000898|
|          27|  1.1724e+00|   -5.898742|   -0.436809|    0.026687|   -3.986878|
|          28|  1.1728e+00|   -5.909549|   -0.447574|    0.028082|   -6.809041|
|          29|  1.1694e+00|   -5.928700|   -0.466712|    0.028847|   -9.381789|
|          30|  1.1668e+00|   -5.955617|   -0.493658|    0.028948|  -11.643719|
|          31|  1.1661e+00|   -5.989613|   -0.527728|    0.028404|  -13.559847|
|          32|  1.1644e+00|   -6.030313|   -0.568539|    0.027286|  -15.120109|
|          33|  1.1605e+00|   -6.078153|   -0.616516|    0.025700|  -16.335009|
|          34|  1.1601e+00|   -6.134884|   -0.673404|    0.023770|  -17.229557|
|          35|  1.1554e+00|   -6.204095|   -0.742799|    0.021613|  -17.836656|
|          36|  1.1483e+00|   -6.292040|   -0.830971|    0.019332|  -18.190945|
|          37|  1.1555e+00|   -6.409547|   -0.948767|    0.016993|  -18.323815|
|          38|  1.1596e+00|   -6.576697|   -1.116201|    0.014641|  -18.260013|
|          39|  1.1604e+00|   -6.822931|   -1.361474|    0.012299|  -18.015966|
|          40|  1.1610e+00|   -6.940651|   -1.472509|    0.009934|  -17.599770|
|          41|  1.1584e+00|   -6.684596|   -1.218848|    0.007574|  -17.012473|
|          42|  1.1578e+00|   -6.483378|   -1.019409|    0.005221|  -16.250230|
|          43|  1.1561e+00|   -6.347454|   -0.884316|    0.002870|  -15.307007|
|          44|  1.1536e+00|   -6.250319|   -0.787652|    0.000512|  -14.177426|
|          45|  1.1538e+00|   -6.178032|   -0.715668|   -0.001862|  -12.859427|
|          46|  1.1522e+00|   -6.122975|   -0.660820|   -0.004249|  -11.356495|
|          47|  1.1518e+00|   -6.080635|   -0.618625|   -0.006630|   -9.679223|
|          48|  1.1504e+00|   -6.048216|   -0.586302|   -0.008974|   -7.846114|
|          49|  1.1507e+00|   -6.023984|   -0.562123|   -0.011238|   -5.883527|
|          50|  1.1540e+00|   -6.006899|   -0.545054|   -0.013369|   -3.824817|
|          51|  1.1508e+00|   -5.996393|   -0.534533|   -0.015309|   -1.708760|
|          52|  1.1462e+00|   -5.992207|   -0.530310|   -0.017001|    0.422528|
|          53|  1.1442e+00|   -5.994282|   -0.532341|   -0.018389|    2.525921|
|          54|  1.1437e+00|   -6.002697|   -0.540717|   -0.019428|    4.559586|
|          55|  1.1462e+00|   -6.017643|   -0.555642|   -0.020083|    6.485026|
|          56|  1.1455e+00|   -6.039435|   -0.577444|   -0.020333|    8.268646|
|          57|  1.1450e+00|   -6.068569|   -0.606629|   -0.020171|    9.882767|
|          58|  1.1479e+00|   -6.105817|   -0.643979|   -0.019603|   11.306050|
|          59|  1.1459e+00|   -6.152389|   -0.690710|   -0.018647|   12.523384|
|          60|  1.1496e+00|   -6.210198|   -0.748744|   -0.017329|   13.525354|
|          61|  1.1493e+00|   -6.282328|   -0.821181|   -0.015681|   14.307413|
|          62|  1.1480e+00|   -6.373977|   -0.913247|   -0.013741|   14.868905|
|          63|  1.1497e+00|   -6.494491|   -1.034357|   -0.011537|   15.212082|
|          64|  1.1528e+00|   -6.662104|   -1.202877|   -0.009112|   15.341215|
|          65|  1.1524e+00|   -6.907811|   -1.449530|   -0.006502|   15.261903|
|          66|  1.1519e+00|   -7.072862|   -1.608152|   -0.003760|   14.980706|
|          67|  1.1507e+00|   -6.823367|   -1.357660|   -0.000933|   14.505010|
|          68|  1.1530e+00|   -6.612084|   -1.147951|    0.001940|   13.843076|
|          69|  1.1546e+00|   -6.468793|   -1.005546|    0.004819|   13.004224|
|          70|  1.1516e+00|   -6.365398|   -0.902685|    0.007669|   11.999190|
|          71|  1.1520e+00|   -6.287387|   -0.825023|    0.010458|   10.840524|
|          72|  1.1544e+00|   -6.227119|   -0.764989|    0.013165|    9.542970|
|          73|  1.1549e+00|   -6.180210|   -0.718235|    0.015774|    8.123735|
|          74|  1.1547e+00|   -6.143974|   -0.682093|    0.018259|    6.602579|
|          75|  1.1539e+00|   -6.116690|   -0.654856|    0.020592|    5.001701|
|          76|  1.1537e+00|   -6.097234|   -0.635409|    0.022742|    3.345387|
|          77|  1.1532e+00|   -6.084873|   -0.623031|    0.024675|    1.659475|
|          78|  1.1531e+00|   -6.079149|   -0.617273|    0.026362|   -0.029347|
|          79|  1.1529e+00|   -6.079814|   -0.617898|    0.027770|   -1.694322|
|          80|  1.1499e+00|   -6.086792|   -0.624840|    0.028873|   -3.309407|
|          81|  1.1545e+00|   -6.100169|   -0.638195|    0.029645|   -4.850014|
|          82|  1.1573e+00|   -6.120206|   -0.658234|    0.030070|   -6.293613|
|          83|  1.1616e+00|   -6.147372|   -0.685434|    0.030133|   -7.620202|
|          84|  1.1657e+00|   -6.182415|   -0.720551|    0.029830|   -8.812591|
|          85|  1.1675e+00|   -6.226477|   -0.764738|    0.029165|   -9.856534|
|          86|  1.1703e+00|   -6.281315|   -0.819757|    0.028146|  -10.740712|
|          87|  1.1747e+00|   -6.349677|   -0.888377|    0.026782|  -11.456615|
|          88|  1.1738e+00|   -6.436074|   -0.975133|    0.025090|  -11.998348|
|          89|  1.1733e+00|   -6.548401|   -1.087978|    0.023106|  -12.362410|
|          90|  1.1731e+00|   -6.701628|   -1.241997|    0.020862|  -12.547490|
|          91|  1.1745e+00|   -6.923165|   -1.464637|    0.018375|  -12.554272|
|          92|  1.1758e+00|   -7.154159|   -1.692325|    0.015678|  -12.385343|
|          93|  1.1738e+00|   -6.971831|   -1.506023|    0.012793|  -12.045189|
|          94|  1.1728e+00|   -6.743109|   -1.278749|    0.009780|  -11.540277|
|          95|  1.1707e+00|   -6.587375|   -1.123949|    0.006702|  -10.879083|
|          96|  1.1694e+00|   -6.476154|   -1.013290|    0.003622|  -10.072137|
|          97|  1.1706e+00|   -6.392752|   -0.930250|    0.000601|   -9.132019|
|          98|  1.1724e+00|   -6.328463|   -0.866203|   -0.002313|   -8.073303|
|          99|  1.1711e+00|   -6.278378|   -0.816278|   -0.005083|   -6.912414|
|         100|  1.1695e+00|   -6.239528|   -0.777529|   -0.007684|   -5.667406|
|         101|  1.1669e+00|   -6.210028|   -0.748082|   -0.010094|   -4.357663|
|         102|  1.1651e+00|   -6.188641|   -0.726714|   -0.012292|   -3.003539|
|         103|  1.1627e+00|   -6.174552|   -0.712619|   -0.014256|   -1.625945|
|         104|  1.1611e+00|   -6.167241|   -0.705285|   -0.015959|   -0.245920|
|         105|  1.1602e+00|   -6.166401|   -0.704416|   -0.017375|    1.115817|
|         106|  1.1582e+00|   -6.171912|   -0.709898|   -0.018479|    2.439286|
|         107|  1.1585e+00|   -6.183817|   -0.721783|   -0.019250|    3.705623|
|         108|  1.1584e+00|   -6.202336|   -0.740299|   -0.019669|    4.897401|
|         109|  1.1562e+00|   -6.227895|   -0.765877|   -0.019724|    5.998876|
|         110|  1.1549e+00|   -6.261185|   -0.799216|   -0.019409|    6.996152|
|         111|  1.1544e+00|   -6.303272|   -0.841388|   -0.018724|    7.877282|
|         112|  1.1522e+00|   -6.355783|   -0.894029|   -0.017675|    8.632305|
|         113|  1.1516e+00|   -6.421257|   -0.959688|   -0.016274|    9.253228|
|         114|  1.1507e+00|   -6.503825|   -1.042517|   -0.014541|    9.733990|
|         115|  1.1488e+00|   -6.610662|   -1.149736|   -0.012499|   10.070404|
|         116|  1.1472e+00|   -6.755380|   -1.295058|   -0.010170|   10.260108|
|         117|  1.1459e+00|   -6.965299|   -1.506027|   -0.007595|   10.302526|
|         118|  1.1450e+00|   -7.240340|   -1.780974|   -0.004817|   10.198885|
|         119|  1.1447e+00|   -7.127254|   -1.662812|   -0.001891|    9.952256|
|         120|  1.1439e+00|   -6.873386|   -1.409650|    0.001133|    9.567601|
|         121|  1.1431e+00|   -6.703198|   -1.240151|    0.004205|    9.051753|
|         122|  1.1427e+00|   -6.583963|   -1.121341|    0.007274|    8.413383|
|         123|  1.1420e+00|   -6.495502|   -1.033158|    0.010296|    7.662933|
|         124|  1.1423e+00|   -6.427678|   -0.965523|    0.013235|    6.812509|
|         125|  1.1428e+00|   -6.374929|   -0.912899|    0.016047|    5.875722|
|         126|  1.1413e+00|   -6.333946|   -0.871996|    0.018701|    4.867470|
|         127|  1.1399e+00|   -6.302648|   -0.840743|    0.021165|    3.803683|
|         128|  1.1400e+00|   -6.279677|   -0.817791|    0.023413|    2.701013|
|         129|  1.1397e+00|   -6.264140|   -0.802251|    0.025415|    1.576507|
|         130|  1.1390e+00|   -6.255454|   -0.793550|    0.027146|    0.447261|
|         131|  1.1392e+00|   -6.253271|   -0.791347|    0.028581|   -0.669907|
|         132|  1.1386e+00|   -6.257433|   -0.795488|    0.029698|   -1.758777|
|         133|  1.1376e+00|   -6.267950|   -0.805992|    0.030480|   -2.803995|
|         134|  1.1368e+00|   -6.285009|   -0.823049|    0.030911|   -3.791305|
|         135|  1.1375e+00|   -6.308996|   -0.847051|    0.030982|   -4.707728|
|         136|  1.1369e+00|   -6.340550|   -0.878642|    0.030689|   -5.541691|
|         137|  1.1361e+00|   -6.380659|   -0.918815|    0.030031|   -6.283109|
|         138|  1.1367e+00|   -6.430831|   -0.969087|    0.029012|   -6.923433|
|         139|  1.1370e+00|   -6.493407|   -1.031805|    0.027639|   -7.455663|
|         140|  1.1365e+00|   -6.572165|   -1.110766|    0.025932|   -7.874345|
|         141|  1.1351e+00|   -6.673615|   -1.212509|    0.023915|   -8.175560|
|         142|  1.1335e+00|   -6.810069|   -1.349424|    0.021620|   -8.356908|
|         143|  1.1328e+00|   -7.007517|   -1.547670|    0.019075|   -8.417496|
|         144|  1.1319e+00|   -7.304106|   -1.844845|    0.016317|   -8.357930|
|         145|  1.1308e+00|   -7.302973|   -1.837973|    0.013380|   -8.180347|
|         146|  1.1297e+00|   -7.013595|   -1.549494|    0.010309|   -7.888443|
|         147|  1.1285e+00|   -6.823623|   -1.360353|    0.007157|   -7.487492|
|         148|  1.1274e+00|   -6.694261|   -1.231451|    0.003978|   -6.984320|
|         149|  1.1264e+00|   -6.599755|   -1.137228|    0.000833|   -6.387260|
|         150|  1.1261e+00|   -6.527891|   -1.065553|   -0.002218|   -5.706050|
|         151|  1.1258e+00|   -6.472209|   -1.009998|   -0.005118|   -4.951705|
|         152|  1.1241e+00|   -6.428955|   -0.966826|   -0.007820|   -4.136328|
|         153|  1.1242e+00|   -6.395799|   -0.933722|   -0.010287|   -3.272885|
|         154|  1.1249e+00|   -6.371236|   -0.909186|   -0.012492|   -2.374952|
|         155|  1.1255e+00|   -6.354275|   -0.892233|   -0.014412|   -1.456441|
|         156|  1.1260e+00|   -6.344270|   -0.882225|   -0.016032|   -0.531329|
|         157|  1.1268e+00|   -6.340826|   -0.878770|   -0.017334|    0.386604|
|         158|  1.1286e+00|   -6.343749|   -0.881681|   -0.018305|    1.284014|
|         159|  1.1297e+00|   -6.353021|   -0.890942|   -0.018932|    2.148207|
|         160|  1.1307e+00|   -6.368802|   -0.906717|   -0.019204|    2.967322|
|         161|  1.1306e+00|   -6.391446|   -0.929367|   -0.019116|    3.730475|
|         162|  1.1312e+00|   -6.421559|   -0.959498|   -0.018665|    4.427881|
|         163|  1.1325e+00|   -6.460076|   -0.998052|   -0.017855|    5.050929|
|         164|  1.1326e+00|   -6.508432|   -1.046464|   -0.016695|    5.592242|
|         165|  1.1339e+00|   -6.568843|   -1.106956|   -0.015200|    6.045708|
|         166|  1.1333e+00|   -6.644873|   -1.183103|   -0.013391|    6.406500|
|         167|  1.1317e+00|   -6.742642|   -1.281041|   -0.011291|    6.671076|
|         168|  1.1306e+00|   -6.873739|   -1.412405|   -0.008928|    6.837187|
|         169|  1.1308e+00|   -7.063422|   -1.602586|   -0.006337|    6.903879|
|         170|  1.1319e+00|   -7.369318|   -1.909590|   -0.003559|    6.871499|
|         171|  1.1331e+00|   -7.487652|   -2.024932|   -0.000641|    6.741720|
|         172|  1.1332e+00|   -7.151034|   -1.688035|    0.002370|    6.517557|
|         173|  1.1328e+00|   -6.940021|   -1.477435|    0.005425|    6.203330|
|         174|  1.1324e+00|   -6.801148|   -1.338807|    0.008478|    5.804624|
|         175|  1.1314e+00|   -6.701298|   -1.239114|    0.011482|    5.328222|
|         176|  1.1307e+00|   -6.625981|   -1.163904|    0.014393|    4.782012|
|         177|  1.1300e+00|   -6.567840|   -1.105836|    0.017173|    4.174872|
|         178|  1.1289e+00|   -6.522697|   -1.060742|    0.019781|    3.516523|
|         179|  1.1277e+00|   -6.487997|   -1.026072|    0.022184|    2.817367|
|         180|  1.1264e+00|   -6.462100|   -1.000191|    0.024348|    2.088295|
|         181|  1.1257e+00|   -6.443930|   -0.982026|    0.026245|    1.340497|
|         182|  1.1248e+00|   -6.432781|   -0.970875|    0.027849|    0.585253|
|         183|  1.1239e+00|   -6.428217|   -0.966305|    0.029136|   -0.166259|
|         184|  1.1235e+00|   -6.430008|   -0.968090|    0.030089|   -0.903158|
|         185|  1.1245e+00|   -6.438108|   -0.976186|    0.030691|   -1.615024|
|         186|  1.1245e+00|   -6.452647|   -0.990728|    0.030932|   -2.292057|
|         187|  1.1251e+00|   -6.473948|   -1.012040|    0.030807|   -2.925196|
|         188|  1.1256e+00|   -6.502571|   -1.040687|    0.030315|   -3.506226|
|         189|  1.1260e+00|   -6.539394|   -1.077548|    0.029461|   -4.027856|
|         190|  1.1271e+00|   -6.585753|   -1.123966|    0.028256|   -4.483780|
|         191|  1.1277e+00|   -6.643709|   -1.182007|    0.026716|   -4.868715|
|         192|  1.1273e+00|   -6.716553|   -1.254971|    0.024863|   -5.178435|
|         193|  1.1264e+00|   -6.809874|   -1.348469|    0.022726|   -5.409784|
|         194|  1.1255e+00|   -6.934138|   -1.473014|    0.020336|   -5.560689|
|         195|  1.1264e+00|   -7.112063|   -1.651454|    0.017730|   -5.630164|
|         196|  1.1275e+00|   -7.403128|   -1.943656|    0.014943|   -5.618310|
|         197|  1.1276e+00|   -7.685225|   -2.221511|    0.012019|   -5.526312|
|         198|  1.1255e+00|   -7.302707|   -1.838624|    0.008997|   -5.356444|
|         199|  1.1252e+00|   -7.063279|   -1.600079|    0.005924|   -5.112057|
|         200|  1.1254e+00|   -6.912142|   -1.449354|    0.002847|   -4.797549|
|         201|  1.1256e+00|   -6.805571|   -1.343017|   -0.000186|   -4.418311|
|         202|  1.1252e+00|   -6.725992|   -1.263586|   -0.003125|   -3.980654|
|         203|  1.1246e+00|   -6.664869|   -1.202563|   -0.005920|   -3.491716|
|         204|  1.1245e+00|   -6.617484|   -1.155247|   -0.008520|   -2.959349|
|         205|  1.1248e+00|   -6.581000|   -1.118809|   -0.010880|   -2.391984|
|         206|  1.1243e+00|   -6.553612|   -1.091449|   -0.012963|   -1.798484|
|         207|  1.1238e+00|   -6.534140|   -1.071993|   -0.014740|   -1.187982|
|         208|  1.1231e+00|   -6.521810|   -1.059671|   -0.016190|   -0.569715|
|         209|  1.1222e+00|   -6.516138|   -1.054000|   -0.017300|    0.047134|
|         210|  1.1213e+00|   -6.516858|   -1.054718|   -0.018061|    0.653595|
|         211|  1.1207e+00|   -6.523895|   -1.061752|   -0.018469|    1.241044|
|         212|  1.1208e+00|   -6.537352|   -1.075206|   -0.018521|    1.801333|
|         213|  1.1199e+00|   -6.557526|   -1.095380|   -0.018219|    2.326891|
|         214|  1.1197e+00|   -6.584944|   -1.122804|   -0.017569|    2.810814|
|         215|  1.1195e+00|   -6.620442|   -1.158312|   -0.016579|    3.246936|
|         216|  1.1200e+00|   -6.665294|   -1.203182|   -0.015262|    3.629889|
|         217|  1.1207e+00|   -6.721461|   -1.259374|   -0.013637|    3.955142|
|         218|  1.1209e+00|   -6.792058|   -1.330008|   -0.011725|    4.219037|
|         219|  1.1214e+00|   -6.882347|   -1.420349|   -0.009552|    4.418809|
|         220|  1.1222e+00|   -7.002109|   -1.540187|   -0.007148|    4.552603|
|         221|  1.1224e+00|   -7.172487|   -1.710701|   -0.004548|    4.619484|
|         222|  1.1226e+00|   -7.451752|   -1.990360|   -0.001789|    4.619438|
|         223|  1.1223e+00|   -7.873192|   -2.413092|    0.001086|    4.553382|
|         224|  1.1220e+00|   -7.448121|   -1.986071|    0.004034|    4.423158|
|         225|  1.1216e+00|   -7.180261|   -1.718204|    0.007010|    4.231503|
|         226|  1.1214e+00|   -7.018506|   -1.556498|    0.009969|    3.982007|
|         227|  1.1210e+00|   -6.906450|   -1.444483|    0.012868|    3.679063|
|         228|  1.1200e+00|   -6.823472|   -1.361538|    0.015662|    3.327797|
|         229|  1.1195e+00|   -6.759986|   -1.298077|    0.018312|    2.933986|
|         230|  1.1188e+00|   -6.710818|   -1.248926|    0.020780|    2.503966|
|         231|  1.1187e+00|   -6.672894|   -1.211014|    0.023028|    2.044528|
|         232|  1.1185e+00|   -6.644277|   -1.182405|    0.025026|    1.562801|
|         233|  1.1176e+00|   -6.623704|   -1.161835|    0.026743|    1.066135|
|         234|  1.1164e+00|   -6.610345|   -1.148477|    0.028154|    0.561978|
|         235|  1.1159e+00|   -6.603673|   -1.141807|    0.029239|    0.057756|
|         236|  1.1153e+00|   -6.603393|   -1.141527|    0.029982|   -0.439243|
|         237|  1.1145e+00|   -6.609398|   -1.147536|    0.030371|   -0.921979|
|         238|  1.1145e+00|   -6.621763|   -1.159910|    0.030401|   -1.383759|
|         239|  1.1151e+00|   -6.640755|   -1.178916|    0.030071|   -1.818323|
|         240|  1.1142e+00|   -6.666860|   -1.205043|    0.029387|   -2.219926|
|         241|  1.1140e+00|   -6.700857|   -1.239073|    0.028359|   -2.583399|
|         242|  1.1134e+00|   -6.743936|   -1.282200|    0.027004|   -2.904203|
|         243|  1.1128e+00|   -6.797919|   -1.336249|    0.025342|   -3.178476|
|         244|  1.1120e+00|   -6.865680|   -1.404106|    0.023398|   -3.403064|
|         245|  1.1119e+00|   -6.952020|   -1.490587|    0.021203|   -3.575549|
|         246|  1.1122e+00|   -7.065711|   -1.604505|    0.018788|   -3.694260|
|         247|  1.1119e+00|   -7.225284|   -1.764502|    0.016190|   -3.758293|
|         248|  1.1117e+00|   -7.480768|   -2.021055|    0.013445|   -3.767503|
|         249|  1.1114e+00|   -7.979529|   -2.522282|    0.010595|   -3.722507|
|         250|  1.1120e+00|   -7.616373|   -2.151869|    0.007678|   -3.624672|
|         251|  1.1115e+00|   -7.307450|   -1.844071|    0.004739|   -3.476100|
|         252|  1.1109e+00|   -7.130996|   -1.668077|    0.001819|   -3.279601|
|         253|  1.1110e+00|   -7.011474|   -1.548795|   -0.001038|   -3.038649|
|         254|  1.1109e+00|   -6.923929|   -1.461397|   -0.003790|   -2.757332|
|         255|  1.1105e+00|   -6.857317|   -1.394882|   -0.006395|   -2.440289|
|         256|  1.1099e+00|   -6.805837|   -1.343469|   -0.008813|   -2.092632|
|         257|  1.1090e+00|   -6.766100|   -1.303779|   -0.011005|   -1.719864|
|         258|  1.1087e+00|   -6.735991|   -1.273702|   -0.012932|   -1.327789|
|         259|  1.1085e+00|   -6.714138|   -1.251871|   -0.014562|   -0.922413|
|         260|  1.1083e+00|   -6.699641|   -1.237388|   -0.015869|   -0.509848|
|         261|  1.1084e+00|   -6.691924|   -1.229678|   -0.016831|   -0.096207|
|         262|  1.1077e+00|   -6.690652|   -1.228410|   -0.017439|    0.312486|
|         263|  1.1069e+00|   -6.695691|   -1.233450|   -0.017688|    0.710395|
|         264|  1.1062e+00|   -6.707090|   -1.244848|   -0.017579|    1.091954|
|         265|  1.1058e+00|   -6.725088|   -1.262842|   -0.017119|    1.451941|
|         266|  1.1053e+00|   -6.750141|   -1.287892|   -0.016320|    1.785547|
|         267|  1.1045e+00|   -6.782990|   -1.320737|   -0.015195|    2.088434|
|         268|  1.1046e+00|   -6.824770|   -1.362511|   -0.013764|    2.356778|
|         269|  1.1051e+00|   -6.877216|   -1.414949|   -0.012048|    2.587311|
|         270|  1.1048e+00|   -6.943055|   -1.480776|   -0.010072|    2.777348|
|         271|  1.1043e+00|   -7.026807|   -1.564508|   -0.007865|    2.924814|
|         272|  1.1035e+00|   -7.136650|   -1.674313|   -0.005457|    3.028256|
|         273|  1.1034e+00|   -7.289613|   -1.827200|   -0.002883|    3.086857|
|         274|  1.1034e+00|   -7.530993|   -2.068417|   -0.000180|    3.100438|
|         275|  1.1031e+00|   -8.041903|   -2.579903|    0.002613|    3.069458|
|         276|  1.1030e+00|   -7.775916|   -2.315550|    0.005456|    2.995009|
|         277|  1.1026e+00|   -7.426101|   -1.964752|    0.008306|    2.878793|
|         278|  1.1025e+00|   -7.237455|   -1.775875|    0.011121|    2.723089|
|         279|  1.1020e+00|   -7.112137|   -1.650465|    0.013862|    2.530718|
|         280|  1.1023e+00|   -7.021147|   -1.559429|    0.016488|    2.304996|
|         281|  1.1025e+00|   -6.952193|   -1.490449|    0.018961|    2.049678|
|         282|  1.1021e+00|   -6.898964|   -1.437206|    0.021243|    1.768896|
|         283|  1.1025e+00|   -6.857827|   -1.396060|    0.023302|    1.467094|
|         284|  1.1020e+00|   -6.826531|   -1.364758|    0.025106|    1.148955|
|         285|  1.1017e+00|   -6.803622|   -1.341846|    0.026628|    0.819326|
|         286|  1.1023e+00|   -6.788145|   -1.326367|    0.027844|    0.483141|
|         287|  1.1022e+00|   -6.779484|   -1.317708|    0.028737|    0.145347|
|         288|  1.1020e+00|   -6.777273|   -1.315501|    0.029294|   -0.189170|
|         289|  1.1024e+00|   -6.781351|   -1.319587|    0.029506|   -0.515660|
|         290|  1.1025e+00|   -6.791738|   -1.329987|    0.029371|   -0.829567|
|         291|  1.1027e+00|   -6.808641|   -1.346910|    0.028895|   -1.126600|
|         292|  1.1029e+00|   -6.832481|   -1.370776|    0.028085|   -1.402779|
|         293|  1.1025e+00|   -6.863944|   -1.402276|    0.026956|   -1.654492|
|         294|  1.1021e+00|   -6.904086|   -1.442469|    0.025526|   -1.878531|
|         295|  1.1015e+00|   -6.954519|   -1.492973|    0.023819|   -2.072133|
|         296|  1.1008e+00|   -7.017759|   -1.556313|    0.021861|   -2.233006|
|         297|  1.1011e+00|   -7.097926|   -1.636629|    0.019681|   -2.359351|
|         298|  1.1012e+00|   -7.202353|   -1.741293|    0.017313|   -2.449883|
|         299|  1.1008e+00|   -7.345887|   -1.885264|    0.014790|   -2.503836|
|         300|  1.1008e+00|   -7.566178|   -2.106611|    0.012150|   -2.520970|
|         301|  1.1011e+00|   -8.012008|   -2.557593|    0.009431|   -2.501564|
|         302|  1.1018e+00|   -7.975105|   -2.509530|    0.006671|   -2.446415|
|         303|  1.1025e+00|   -7.559775|   -2.095805|    0.003910|   -2.356815|
|         304|  1.1022e+00|   -7.352635|   -1.889344|    0.001187|   -2.234538|
|         305|  1.1017e+00|   -7.218709|   -1.755746|   -0.001456|   -2.081808|
|         306|  1.1015e+00|   -7.122671|   -1.659899|   -0.003983|   -1.901260|
|         307|  1.1011e+00|   -7.050342|   -1.587694|   -0.006357|   -1.695904|
|         308|  1.1007e+00|   -6.994656|   -1.532092|   -0.008542|   -1.469071|
|         309|  1.1005e+00|   -6.951613|   -1.489109|   -0.010506|   -1.224362|
|         310|  1.1002e+00|   -6.918768|   -1.456306|   -0.012219|   -0.965589|
|         311|  1.0996e+00|   -6.894546|   -1.432115|   -0.013657|   -0.696713|
|         312|  1.0991e+00|   -6.877919|   -1.415509|   -0.014795|   -0.421784|
|         313|  1.0987e+00|   -6.868216|   -1.405820|   -0.015615|   -0.144874|
|         314|  1.0990e+00|   -6.865035|   -1.402646|   -0.016105|    0.129980|
|         315|  1.0993e+00|   -6.868183|   -1.405796|   -0.016256|    0.398841|
|         316|  1.0990e+00|   -6.877653|   -1.415265|   -0.016067|    0.657926|
|         317|  1.0990e+00|   -6.893628|   -1.431233|   -0.015542|    0.903659|
|         318|  1.0992e+00|   -6.916497|   -1.454092|   -0.014693|    1.132719|
|         319|  1.0993e+00|   -6.946912|   -1.484490|   -0.013535|    1.342082|
|         320|  1.0994e+00|   -6.985878|   -1.523432|   -0.012089|    1.529057|
|         321|  1.0990e+00|   -7.034932|   -1.572452|   -0.010380|    1.691318|
|         322|  1.0987e+00|   -7.096461|   -1.633931|   -0.008434|    1.826930|
|         323|  1.0985e+00|   -7.174352|   -1.711747|   -0.006281|    1.934363|
|         324|  1.0990e+00|   -7.275452|   -1.812724|   -0.003954|    2.012513|
|         325|  1.0994e+00|   -7.413405|   -1.950457|   -0.001488|    2.060707|
|         326|  1.0994e+00|   -7.621916|   -2.158489|    0.001083|    2.078708|
|         327|  1.0987e+00|   -8.030719|   -2.565848|    0.003720|    2.066713|
|         328|  1.0984e+00|   -8.165313|   -2.709501|    0.006386|    2.025347|
|         329|  1.0978e+00|   -7.682162|   -2.222015|    0.009043|    1.955648|
|         330|  1.0976e+00|   -7.460052|   -1.999131|    0.011653|    1.859045|
|         331|  1.0971e+00|   -7.319664|   -1.858439|    0.014177|    1.737337|
|         332|  1.0966e+00|   -7.219951|   -1.758569|    0.016580|    1.592653|
|         333|  1.0962e+00|   -7.145185|   -1.683712|    0.018826|    1.427426|
|         334|  1.0958e+00|   -7.087709|   -1.626177|    0.020882|    1.244347|
|         335|  1.0958e+00|   -7.043249|   -1.581679|    0.022719|    1.046324|
|         336|  1.0961e+00|   -7.009211|   -1.547616|    0.024308|    0.836436|
|         337|  1.0962e+00|   -6.983936|   -1.522325|    0.025626|    0.617885|
|         338|  1.0959e+00|   -6.966336|   -1.504716|    0.026655|    0.393947|
|         339|  1.0958e+00|   -6.955703|   -1.494080|    0.027379|    0.167922|
|         340|  1.0957e+00|   -6.951601|   -1.489983|    0.027790|   -0.056911|
|         341|  1.0959e+00|   -6.953810|   -1.492202|    0.027883|   -0.277345|
|         342|  1.0954e+00|   -6.962298|   -1.500706|    0.027659|   -0.490289|
|         343|  1.0949e+00|   -6.977215|   -1.515648|    0.027122|   -0.692808|
|         344|  1.0942e+00|   -6.998914|   -1.537382|    0.026284|   -0.882164|
|         345|  1.0945e+00|   -7.027997|   -1.566512|    0.025158|   -1.055850|
|         346|  1.0948e+00|   -7.065398|   -1.603977|    0.023763|   -1.211623|
|         347|  1.0947e+00|   -7.112541|   -1.651208|    0.022120|   -1.347530|
|         348|  1.0955e+00|   -7.171627|   -1.710418|    0.020256|   -1.461928|
|         349|  1.0957e+00|   -7.246200|   -1.785172|    0.018198|   -1.553506|
|         350|  1.0962e+00|   -7.342394|   -1.881654|    0.015978|   -1.621295|
|         351|  1.0959e+00|   -7.472113|   -2.011885|    0.013627|   -1.664681|
|         352|  1.0956e+00|   -7.663346|   -2.204269|    0.011180|   -1.683401|
|         353|  1.0958e+00|   -8.012629|   -2.558100|    0.008673|   -1.677550|
|         354|  1.0961e+00|   -8.422781|   -2.960608|    0.006142|   -1.647570|
|         355|  1.0954e+00|   -7.826626|   -2.361496|    0.003623|   -1.594245|
|         356|  1.0952e+00|   -7.579544|   -2.115557|    0.001153|   -1.518679|
|         357|  1.0954e+00|   -7.428722|   -1.965259|   -0.001232|   -1.422284|
|         358|  1.0950e+00|   -7.323194|   -1.860025|   -0.003500|   -1.306753|
|         359|  1.0958e+00|   -7.244657|   -1.781672|   -0.005616|   -1.174033|
|         360|  1.0956e+00|   -7.184488|   -1.721627|   -0.007550|   -1.026291|
|         361|  1.0952e+00|   -7.137972|   -1.675198|   -0.009275|   -0.865884|
|         362|  1.0950e+00|   -7.102281|   -1.639570|   -0.010766|   -0.695317|
|         363|  1.0952e+00|   -7.075623|   -1.612956|   -0.012001|   -0.517205|
|         364|  1.0954e+00|   -7.056823|   -1.594188|   -0.012963|   -0.334234|
|         365|  1.0959e+00|   -7.045118|   -1.582503|   -0.013639|   -0.149120|
|         366|  1.0958e+00|   -7.040029|   -1.577427|   -0.014018|    0.035434|
|         367|  1.0955e+00|   -7.041305|   -1.578706|   -0.014096|    0.216776|
|         368|  1.0950e+00|   -7.048885|   -1.586282|   -0.013872|    0.392343|
|         369|  1.0950e+00|   -7.062894|   -1.600280|   -0.013351|    0.559697|
|         370|  1.0947e+00|   -7.083656|   -1.621022|   -0.012541|    0.716558|
|         371|  1.0942e+00|   -7.111741|   -1.649076|   -0.011454|    0.860834|
|         372|  1.0942e+00|   -7.148037|   -1.685328|   -0.010110|    0.990648|
|         373|  1.0946e+00|   -7.193901|   -1.731130|   -0.008528|    1.104361|
|         374|  1.0944e+00|   -7.251427|   -1.788566|   -0.006733|    1.200591|
|         375|  1.0947e+00|   -7.323967|   -1.860974|   -0.004755|    1.278226|
|         376|  1.0949e+00|   -7.417272|   -1.954071|   -0.002622|    1.336440|
|         377|  1.0947e+00|   -7.542340|   -2.078781|   -0.000369|    1.374695|
|         378|  1.0945e+00|   -7.724403|   -2.260113|    0.001972|    1.392749|
|         379|  1.0941e+00|   -8.046359|   -2.579916|    0.004366|    1.390651|
|         380|  1.0937e+00|   -8.668482|   -3.224358|    0.006777|    1.368743|
|         381|  1.0933e+00|   -7.955716|   -2.497864|    0.009169|    1.327641|
|         382|  1.0928e+00|   -7.688704|   -2.228886|    0.011509|    1.268233|
|         383|  1.0929e+00|   -7.530302|   -2.069799|    0.013761|    1.191650|
|         384|  1.0928e+00|   -7.420696|   -1.959853|    0.015894|    1.099258|
|         385|  1.0926e+00|   -7.339535|   -1.878495|    0.017876|    0.992626|
|         386|  1.0929e+00|   -7.277475|   -1.816309|    0.019679|    0.873504|
|         387|  1.0930e+00|   -7.229480|   -1.768231|    0.021279|    0.743794|
|         388|  1.0937e+00|   -7.192558|   -1.731253|    0.022652|    0.605523|
|         389|  1.0936e+00|   -7.164818|   -1.703476|    0.023779|    0.460806|
|         390|  1.0940e+00|   -7.145028|   -1.683663|    0.024647|    0.311820|
|         391|  1.0938e+00|   -7.132379|   -1.671003|    0.025244|    0.160770|
|         392|  1.0939e+00|   -7.126362|   -1.664986|    0.025564|    0.009854|
|         393|  1.0943e+00|   -7.126697|   -1.665330|    0.025602|   -0.138766|
|         394|  1.0943e+00|   -7.133294|   -1.671948|    0.025361|   -0.282993|
|         395|  1.0944e+00|   -7.146250|   -1.684936|    0.024846|   -0.420829|
|         396|  1.0943e+00|   -7.165854|   -1.704585|    0.024066|   -0.550396|
|         397|  1.0943e+00|   -7.192625|   -1.731419|    0.023034|   -0.669964|
|         398|  1.0944e+00|   -7.227386|   -1.766265|    0.021765|   -0.777972|
|         399|  1.0941e+00|   -7.271391|   -1.810385|    0.020281|   -0.873049|
|         400|  1.0937e+00|   -7.326561|   -1.865719|    0.018603|   -0.954030|
|         401|  1.0932e+00|   -7.395948|   -1.935342|    0.016757|   -1.019967|
|         402|  1.0926e+00|   -7.484694|   -2.024456|    0.014771|   -1.070141|
|         403|  1.0925e+00|   -7.602384|   -2.142780|    0.012674|   -1.104070|
|         404|  1.0923e+00|   -7.770021|   -2.311737|    0.010497|   -1.121510|
|         405|  1.0922e+00|   -8.049946|   -2.595860|    0.008273|   -1.122458|
|         406|  1.0919e+00|   -8.744756|   -3.338816|    0.006033|   -1.107144|
|         407|  1.0920e+00|   -8.118283|   -2.651159|    0.003811|   -1.076030|
|         408|  1.0917e+00|   -7.814786|   -2.349589|    0.001638|   -1.029798|
|         409|  1.0918e+00|   -7.643044|   -2.178745|   -0.000455|   -0.969336|
|         410|  1.0917e+00|   -7.526451|   -2.062637|   -0.002437|   -0.895726|
|         411|  1.0911e+00|   -7.440918|   -1.977400|   -0.004279|   -0.810223|
|         412|  1.0909e+00|   -7.375812|   -1.912490|   -0.005957|   -0.714234|
|         413|  1.0906e+00|   -7.325533|   -1.862348|   -0.007446|   -0.609300|
|         414|  1.0900e+00|   -7.286802|   -1.823715|   -0.008726|   -0.497066|
|         415|  1.0895e+00|   -7.257569|   -1.794551|   -0.009779|   -0.379258|
|         416|  1.0889e+00|   -7.236500|   -1.773531|   -0.010590|   -0.257659|
|         417|  1.0887e+00|   -7.222722|   -1.759785|   -0.011150|   -0.134077|
|         418|  1.0884e+00|   -7.215679|   -1.752761|   -0.011451|   -0.010323|
|         419|  1.0882e+00|   -7.215055|   -1.752143|   -0.011490|    0.111820|
|         420|  1.0881e+00|   -7.220733|   -1.757816|   -0.011267|    0.230617|
|         421|  1.0877e+00|   -7.232782|   -1.769848|   -0.010788|    0.344410|
|         422|  1.0874e+00|   -7.251466|   -1.788499|   -0.010061|    0.451641|
|         423|  1.0873e+00|   -7.277271|   -1.814257|   -0.009096|    0.550867|
|         424|  1.0870e+00|   -7.310982|   -1.847899|   -0.007911|    0.640786|
|         425|  1.0872e+00|   -7.353795|   -1.890616|   -0.006522|    0.720251|
|         426|  1.0874e+00|   -7.407545|   -1.944229|   -0.004952|    0.788279|
|         427|  1.0875e+00|   -7.475128|   -2.011614|   -0.003224|    0.844070|
|         428|  1.0872e+00|   -7.561397|   -2.097580|   -0.001365|    0.887012|
|         429|  1.0868e+00|   -7.675282|   -2.210961|    0.000598|    0.916686|
|         430|  1.0864e+00|   -7.835970|   -2.370686|    0.002635|    0.932871|
|         431|  1.0860e+00|   -8.098277|   -2.630533|    0.004715|    0.935541|
|         432|  1.0856e+00|   -8.762131|   -3.286376|    0.006806|    0.924867|
|         433|  1.0855e+00|   -8.257940|   -2.805177|    0.008879|    0.901208|
|         434|  1.0856e+00|   -7.926016|   -2.468192|    0.010901|    0.865104|
|         435|  1.0853e+00|   -7.745185|   -2.285901|    0.012844|    0.817265|
|         436|  1.0849e+00|   -7.624027|   -2.164065|    0.014680|    0.758557|
|         437|  1.0853e+00|   -7.535661|   -2.075317|    0.016383|    0.689991|
|         438|  1.0855e+00|   -7.468555|   -2.007973|    0.017930|    0.612702|
|         439|  1.0858e+00|   -7.416733|   -1.955993|    0.019298|    0.527933|
|         440|  1.0862e+00|   -7.376728|   -1.915880|    0.020470|    0.437014|
|         441|  1.0862e+00|   -7.346383|   -1.885462|    0.021431|    0.341345|
|         442|  1.0861e+00|   -7.324298|   -1.863330|    0.022167|    0.242371|
|         443|  1.0863e+00|   -7.309556|   -1.848561|    0.022670|    0.141562|
|         444|  1.0869e+00|   -7.301567|   -1.840562|    0.022935|    0.040392|
|         445|  1.0875e+00|   -7.299985|   -1.838987|    0.022959|   -0.059683|
|         446|  1.0880e+00|   -7.304667|   -1.843690|    0.022743|   -0.157244|
|         447|  1.0880e+00|   -7.315650|   -1.854713|    0.022293|   -0.250931|
|         448|  1.0877e+00|   -7.333163|   -1.872284|    0.021616|   -0.339460|
|         449|  1.0879e+00|   -7.357646|   -1.896850|    0.020724|   -0.421640|
|         450|  1.0875e+00|   -7.389818|   -1.929135|    0.019631|   -0.496391|
|         451|  1.0871e+00|   -7.430777|   -1.970249|    0.018354|   -0.562752|
|         452|  1.0866e+00|   -7.482200|   -2.021888|    0.016912|   -0.619901|
|         453|  1.0861e+00|   -7.546708|   -2.086708|    0.015329|   -0.667156|
|         454|  1.0858e+00|   -7.628622|   -2.169096|    0.013627|   -0.703990|
|         455|  1.0856e+00|   -7.735694|   -2.276958|    0.011832|   -0.730031|
|         456|  1.0851e+00|   -7.883879|   -2.426683|    0.009971|   -0.745069|
|         457|  1.0851e+00|   -8.114921|   -2.661844|    0.008070|   -0.749054|
|         458|  1.0851e+00|   -8.607957|   -3.183770|    0.006159|   -0.742094|
|         459|  1.0851e+00|   -8.451514|   -2.982026|    0.004264|   -0.724453|
|         460|  1.0851e+00|   -8.062251|   -2.595005|    0.002414|   -0.696545|
|         461|  1.0852e+00|   -7.863343|   -2.397677|    0.000634|   -0.658925|
|         462|  1.0851e+00|   -7.733385|   -2.268546|   -0.001050|   -0.612280|
|         463|  1.0847e+00|   -7.639744|   -2.175399|   -0.002614|   -0.557414|
|         464|  1.0843e+00|   -7.569069|   -2.105046|   -0.004036|   -0.495242|
|         465|  1.0839e+00|   -7.514630|   -2.050827|   -0.005297|   -0.426765|
|         466|  1.0836e+00|   -7.472591|   -2.008943|   -0.006379|   -0.353066|
|         467|  1.0834e+00|   -7.440591|   -1.977054|   -0.007268|   -0.275281|
|         468|  1.0836e+00|   -7.417110|   -1.953652|   -0.007952|   -0.194593|
|         469|  1.0834e+00|   -7.401154|   -1.937748|   -0.008423|   -0.112204|
|         470|  1.0835e+00|   -7.392076|   -1.928702|   -0.008674|   -0.029328|
|         471|  1.0838e+00|   -7.389495|   -1.926132|   -0.008705|    0.052839|
|         472|  1.0838e+00|   -7.393232|   -1.929864|   -0.008516|    0.133123|
|         473|  1.0833e+00|   -7.403301|   -1.939908|   -0.008110|    0.210401|
|         474|  1.0829e+00|   -7.419903|   -1.956465|   -0.007496|    0.283607|
|         475|  1.0827e+00|   -7.443451|   -1.979944|   -0.006684|    0.351751|
|         476|  1.0826e+00|   -7.474629|   -2.011023|   -0.005685|    0.413931|
|         477|  1.0825e+00|   -7.514490|   -2.050745|   -0.004518|    0.469346|
|         478|  1.0827e+00|   -7.564640|   -2.100700|   -0.003198|    0.517303|
|         479|  1.0822e+00|   -7.627588|   -2.163368|   -0.001748|    0.557229|
|         480|  1.0817e+00|   -7.707442|   -2.242806|   -0.000188|    0.588672|
|         481|  1.0812e+00|   -7.811514|   -2.346209|    0.001457|    0.611313|
|         482|  1.0809e+00|   -7.954633|   -2.488120|    0.003162|    0.624961|
|         483|  1.0804e+00|   -8.174614|   -2.705376|    0.004902|    0.629560|
|         484|  1.0801e+00|   -8.628345|   -3.149205|    0.006653|    0.625182|
|         485|  1.0799e+00|   -8.607984|   -3.167960|    0.008387|    0.612030|
|         486|  1.0796e+00|   -8.175349|   -2.721243|    0.010080|    0.590426|
|         487|  1.0792e+00|   -7.965526|   -2.508311|    0.011707|    0.560812|
|         488|  1.0788e+00|   -7.830550|   -2.372023|    0.013246|    0.523734|
|         489|  1.0787e+00|   -7.733921|   -2.274687|    0.014675|    0.479839|
|         490|  1.0788e+00|   -7.661184|   -2.201515|    0.015974|    0.429863|
|         491|  1.0785e+00|   -7.605170|   -2.145217|    0.017124|    0.374614|
|         492|  1.0782e+00|   -7.561836|   -2.101690|    0.018112|    0.314966|
|         493|  1.0777e+00|   -7.528708|   -2.068429|    0.018922|    0.251842|
|         494|  1.0772e+00|   -7.504198|   -2.043830|    0.019547|    0.186201|
|         495|  1.0768e+00|   -7.487262|   -2.026839|    0.019976|    0.119022|
|         496|  1.0766e+00|   -7.477222|   -2.016772|    0.020207|    0.051291|
|         497|  1.0762e+00|   -7.473663|   -2.013210|    0.020237|   -0.016010|
|         498|  1.0757e+00|   -7.476381|   -2.015951|    0.020068|   -0.081924|
|         499|  1.0754e+00|   -7.485359|   -2.024975|    0.019703|   -0.145528|
|         500|  1.0748e+00|   -7.500761|   -2.040452|    0.019149|   -0.205943|
|         501|  1.0744e+00|   -7.522955|   -2.062755|    0.018417|   -0.262352|
|         502|  1.0739e+00|   -7.552559|   -2.092510|    0.017516|   -0.314008|
|         503|  1.0735e+00|   -7.590532|   -2.130690|    0.016464|   -0.360241|
|         504|  1.0730e+00|   -7.638329|   -2.178774|    0.015274|   -0.400472|
|         505|  1.0728e+00|   -7.698199|   -2.239055|    0.013966|   -0.434214|
|         506|  1.0723e+00|   -7.773771|   -2.315241|    0.012560|   -0.461081|
|         507|  1.0717e+00|   -7.871337|   -2.413800|    0.011076|   -0.480792|
|         508|  1.0712e+00|   -8.003143|   -2.547433|    0.009537|   -0.493173|
|         509|  1.0710e+00|   -8.198042|   -2.746627|    0.007966|   -0.498156|
|         510|  1.0704e+00|   -8.553354|   -3.120591|    0.006385|   -0.495782|
|         511|  1.0701e+00|   -8.836714|   -3.379988|    0.004817|   -0.486197|
|         512|  1.0699e+00|   -8.327279|   -2.856852|    0.003284|   -0.469646|
|         513|  1.0694e+00|   -8.091628|   -2.623806|    0.001810|   -0.446473|
|         514|  1.0689e+00|   -7.945049|   -2.478627|    0.000414|   -0.417110|
|         515|  1.0685e+00|   -7.841793|   -2.376190|   -0.000884|   -0.382072|
|         516|  1.0683e+00|   -7.764716|   -2.299638|   -0.002065|   -0.341948|
|         517|  1.0685e+00|   -7.705601|   -2.240878|   -0.003114|   -0.297392|
|         518|  1.0685e+00|   -7.659907|   -2.195434|   -0.004017|   -0.249111|
|         519|  1.0688e+00|   -7.624896|   -2.160601|   -0.004760|   -0.197854|
|         520|  1.0691e+00|   -7.598826|   -2.134657|   -0.005336|   -0.144404|
|         521|  1.0693e+00|   -7.580556|   -2.116472|   -0.005736|   -0.089561|
|         522|  1.0696e+00|   -7.569342|   -2.105310|   -0.005957|   -0.034135|
|         523|  1.0695e+00|   -7.564725|   -2.100716|   -0.005996|    0.021069|
|         524|  1.0693e+00|   -7.566466|   -2.102453|   -0.005854|    0.075262|
|         525|  1.0692e+00|   -7.574517|   -2.110473|   -0.005535|    0.127679|
|         526|  1.0694e+00|   -7.589020|   -2.124915|   -0.005045|    0.177596|
|         527|  1.0698e+00|   -7.610317|   -2.146117|   -0.004392|    0.224333|
|         528|  1.0699e+00|   -7.638999|   -2.174662|   -0.003587|    0.267268|
|         529|  1.0698e+00|   -7.675989|   -2.211460|   -0.002643|    0.305843|
|         530|  1.0696e+00|   -7.722693|   -2.257897|   -0.001574|    0.339570|
|         531|  1.0693e+00|   -7.781283|   -2.316110|   -0.000397|    0.368039|
|         532|  1.0693e+00|   -7.855256|   -2.389530|    0.000869|    0.390922|
|         533|  1.0695e+00|   -7.950641|   -2.484055|    0.002206|    0.407977|
|         534|  1.0689e+00|   -8.079070|   -2.611009|    0.003594|    0.419048|
|         535|  1.0683e+00|   -8.267575|   -2.796511|    0.005013|    0.424068|
|         536|  1.0682e+00|   -8.605856|   -3.126236|    0.006440|    0.423058|
|         537|  1.0681e+00|   -9.009744|   -3.597462|    0.007856|    0.416126|
|         538|  1.0679e+00|   -8.440930|   -2.994217|    0.009241|    0.403461|
|         539|  1.0679e+00|   -8.192530|   -2.738924|    0.010573|    0.385333|
|         540|  1.0677e+00|   -8.040759|   -2.584597|    0.011835|    0.362087|
|         541|  1.0673e+00|   -7.934560|   -2.477095|    0.013009|    0.334134|
|         542|  1.0669e+00|   -7.855491|   -2.397253|    0.014079|    0.301946|
|         543|  1.0668e+00|   -7.794862|   -2.336125|    0.015029|    0.266052|
|         544|  1.0664e+00|   -7.747918|   -2.288844|    0.015848|    0.227021|
|         545|  1.0661e+00|   -7.711811|   -2.252504|    0.016524|    0.185462|
|         546|  1.0655e+00|   -7.684729|   -2.225263|    0.017049|    0.142009|
|         547|  1.0652e+00|   -7.665486|   -2.205917|    0.017416|    0.097315|
|         548|  1.0650e+00|   -7.653306|   -2.193678|    0.017623|    0.052039|
|         549|  1.0648e+00|   -7.647698|   -2.188051|    0.017666|    0.006838|
|         550|  1.0650e+00|   -7.648398|   -2.188767|    0.017548|   -0.037639|
|         551|  1.0652e+00|   -7.655327|   -2.195750|    0.017271|   -0.080766|
|         552|  1.0654e+00|   -7.668589|   -2.209107|    0.016840|   -0.121945|
|         553|  1.0657e+00|   -7.688481|   -2.229139|    0.016263|   -0.160617|
|         554|  1.0659e+00|   -7.715528|   -2.256384|    0.015549|   -0.196263|
|         555|  1.0656e+00|   -7.750556|   -2.291687|    0.014711|   -0.228420|
|         556|  1.0653e+00|   -7.794823|   -2.336335|    0.013761|   -0.256678|
|         557|  1.0651e+00|   -7.850253|   -2.392304|    0.012714|   -0.280693|
|         558|  1.0648e+00|   -7.919891|   -2.462735|    0.011586|   -0.300183|
|         559|  1.0648e+00|   -8.008852|   -2.552946|    0.010394|   -0.314938|
|         560|  1.0648e+00|   -8.126606|   -2.672891|    0.009155|   -0.324819|
|         561|  1.0644e+00|   -8.293582|   -2.844530|    0.007888|   -0.329757|
|         562|  1.0646e+00|   -8.567077|   -3.133122|    0.006612|   -0.329756|
|         563|  1.0647e+00|   -9.068605|   -3.709501|    0.005344|   -0.324892|
|         564|  1.0646e+00|   -8.616704|   -3.142558|    0.004104|   -0.315307|
|         565|  1.0644e+00|   -8.330410|   -2.859309|    0.002908|   -0.301211|
|         566|  1.0643e+00|   -8.162678|   -2.693846|    0.001774|   -0.282874|
|         567|  1.0646e+00|   -8.047807|   -2.580313|    0.000718|   -0.260624|
|         568|  1.0647e+00|   -7.963259|   -2.496613|   -0.000246|   -0.234840|
|         569|  1.0648e+00|   -7.898819|   -2.432742|   -0.001105|   -0.205944|
|         570|  1.0647e+00|   -7.849043|   -2.383365|   -0.001847|   -0.174400|
|         571|  1.0646e+00|   -7.810724|   -2.345329|   -0.002462|   -0.140700|
|         572|  1.0647e+00|   -7.781847|   -2.316652|   -0.002943|   -0.105360|
|         573|  1.0647e+00|   -7.761101|   -2.296045|   -0.003284|   -0.068914|
|         574|  1.0648e+00|   -7.747628|   -2.282659|   -0.003481|   -0.031900|
|         575|  1.0649e+00|   -7.740883|   -2.275957|   -0.003533|    0.005140|
|         576|  1.0649e+00|   -7.740558|   -2.275636|   -0.003439|    0.041675|
|         577|  1.0650e+00|   -7.746546|   -2.281589|   -0.003203|    0.077188|
|         578|  1.0649e+00|   -7.758927|   -2.293891|   -0.002830|    0.111185|
|         579|  1.0646e+00|   -7.777973|   -2.312812|   -0.002325|    0.143201|
|         580|  1.0643e+00|   -7.804190|   -2.338847|   -0.001697|    0.172806|
|         581|  1.0642e+00|   -7.838382|   -2.372784|   -0.000957|    0.199613|
|         582|  1.0636e+00|   -7.881778|   -2.415827|   -0.000116|    0.223279|
|         583|  1.0632e+00|   -7.936264|   -2.469818|    0.000813|    0.243513|
|         584|  1.0630e+00|   -8.004821|   -2.537664|    0.001816|    0.260077|
|         585|  1.0629e+00|   -8.092457|   -2.624226|    0.002877|    0.272790|
|         586|  1.0625e+00|   -8.208411|   -2.738427|    0.003980|    0.281528|
|         587|  1.0622e+00|   -8.372561|   -2.899311|    0.005109|    0.286226|
|         588|  1.0621e+00|   -8.640771|   -3.159928|    0.006249|    0.286880|
|         589|  1.0614e+00|   -9.183407|   -3.724232|    0.007380|    0.283543|
|         590|  1.0614e+00|   -8.726914|   -3.296504|    0.008489|    0.276321|
|         591|  1.0617e+00|   -8.427243|   -2.980219|    0.009559|    0.265379|
|         592|  1.0620e+00|   -8.254974|   -2.802795|    0.010575|    0.250931|
|         593|  1.0623e+00|   -8.137676|   -2.683070|    0.011522|    0.233238|
|         594|  1.0620e+00|   -8.051493|   -2.595507|    0.012388|    0.212602|
|         595|  1.0619e+00|   -7.985788|   -2.528931|    0.013160|    0.189365|
|         596|  1.0617e+00|   -7.934938|   -2.477499|    0.013829|    0.163899|
|         597|  1.0614e+00|   -7.895645|   -2.437805|    0.014386|    0.136605|
|         598|  1.0614e+00|   -7.865839|   -2.407722|    0.014824|    0.107900|
|         599|  1.0616e+00|   -7.844174|   -2.385872|    0.015137|    0.078219|
|         600|  1.0613e+00|   -7.829763|   -2.371348|    0.015322|    0.048002|
|         601|  1.0611e+00|   -7.822034|   -2.363567|    0.015379|    0.017689|
|         602|  1.0610e+00|   -7.820656|   -2.362192|    0.015306|   -0.012282|
|         603|  1.0608e+00|   -7.825491|   -2.367085|    0.015107|   -0.041488|
|         604|  1.0605e+00|   -7.836581|   -2.378290|    0.014785|   -0.069522|
|         605|  1.0606e+00|   -7.854152|   -2.396041|    0.014346|   -0.095998|
|         606|  1.0604e+00|   -7.878641|   -2.420790|    0.013798|   -0.120562|
|         607|  1.0605e+00|   -7.910755|   -2.453266|    0.013150|   -0.142891|
|         608|  1.0605e+00|   -7.951571|   -2.494583|    0.012412|   -0.162697|
|         609|  1.0600e+00|   -8.002726|   -2.546445|    0.011595|   -0.179737|
|         610|  1.0598e+00|   -8.066767|   -2.611514|    0.010712|   -0.193806|
|         611|  1.0598e+00|   -8.147852|   -2.694180|    0.009776|   -0.204749|
|         612|  1.0597e+00|   -8.253333|   -2.802326|    0.008801|   -0.212457|
|         613|  1.0598e+00|   -8.397908|   -2.952143|    0.007802|   -0.216867|
|         614|  1.0595e+00|   -8.617225|   -3.185444|    0.006793|   -0.217967|
|         615|  1.0597e+00|   -9.011751|   -3.652264|    0.005789|   -0.215791|
|         616|  1.0599e+00|   -8.930346|   -3.461635|    0.004804|   -0.210420|
|         617|  1.0600e+00|   -8.582482|   -3.107065|    0.003853|   -0.201980|
|         618|  1.0599e+00|   -8.387665|   -2.915356|    0.002948|   -0.190638|
|         619|  1.0601e+00|   -8.258610|   -2.788363|    0.002103|   -0.176601|
|         620|  1.0602e+00|   -8.165251|   -2.696329|    0.001328|   -0.160111|
|         621|  1.0598e+00|   -8.094693|   -2.626662|    0.000635|   -0.141442|
|         622|  1.0596e+00|   -8.040322|   -2.572913|    0.000033|   -0.120895|
|         623|  1.0594e+00|   -7.998341|   -2.531373|   -0.000470|   -0.098793|
|         624|  1.0594e+00|   -7.966402|   -2.499749|   -0.000869|   -0.075477|
|         625|  1.0598e+00|   -7.942992|   -2.476559|   -0.001158|   -0.051301|
|         626|  1.0602e+00|   -7.927117|   -2.460828|   -0.001334|   -0.026623|
|         627|  1.0606e+00|   -7.918136|   -2.451926|   -0.001396|   -0.001806|
|         628|  1.0611e+00|   -7.915667|   -2.449478|   -0.001343|    0.022792|
|         629|  1.0615e+00|   -7.919538|   -2.453314|   -0.001178|    0.046822|
|         630|  1.0620e+00|   -7.929765|   -2.463447|   -0.000904|    0.069947|
|         631|  1.0623e+00|   -7.946556|   -2.480079|   -0.000527|    0.091849|
|         632|  1.0626e+00|   -7.970334|   -2.503622|   -0.000051|    0.112234|
|         633|  1.0625e+00|   -8.001795|   -2.534754|    0.000514|    0.130831|
|         634|  1.0624e+00|   -8.042011|   -2.574515|    0.001159|    0.147401|
|         635|  1.0626e+00|   -8.092617|   -2.624492|    0.001876|    0.161737|
|         636|  1.0628e+00|   -8.156167|   -2.687152|    0.002652|    0.173669|
|         637|  1.0625e+00|   -8.236840|   -2.766521|    0.003475|    0.183061|
|         638|  1.0626e+00|   -8.342058|   -2.869702|    0.004335|    0.189818|
|         639|  1.0627e+00|   -8.486747|   -3.010899|    0.005217|    0.193883|
|         640|  1.0627e+00|   -8.707725|   -3.225040|    0.006108|    0.195238|
|         641|  1.0627e+00|   -9.118844|   -3.632863|    0.006997|    0.193907|
|         642|  1.0626e+00|   -9.028370|   -3.637451|    0.007870|    0.189949|
|         643|  1.0627e+00|   -8.669810|   -3.235591|    0.008714|    0.183460|
|         644|  1.0625e+00|   -8.473092|   -3.027874|    0.009518|    0.174573|
|         645|  1.0626e+00|   -8.343095|   -2.893220|    0.010270|    0.163452|
|         646|  1.0624e+00|   -8.249007|   -2.796624|    0.010960|    0.150291|
|         647|  1.0623e+00|   -8.177774|   -2.723859|    0.011580|    0.135308|
|         648|  1.0625e+00|   -8.122731|   -2.667811|    0.012119|    0.118747|
|         649|  1.0628e+00|   -8.080055|   -2.624448|    0.012573|    0.100870|
|         650|  1.0630e+00|   -8.047383|   -2.591301|    0.012934|    0.081952|
|         651|  1.0629e+00|   -8.023188|   -2.566782|    0.013199|    0.062280|
|         652|  1.0628e+00|   -8.006460|   -2.549847|    0.013364|    0.042149|
|         653|  1.0626e+00|   -7.996543|   -2.539817|    0.013429|    0.021853|
|         654|  1.0623e+00|   -7.993031|   -2.536278|    0.013393|    0.001687|
|         655|  1.0621e+00|   -7.995727|   -2.539027|    0.013258|   -0.018064|
|         656|  1.0622e+00|   -8.004610|   -2.548046|    0.013027|   -0.037121|
|         657|  1.0625e+00|   -8.019838|   -2.563503|    0.012704|   -0.055223|
|         658|  1.0628e+00|   -8.041764|   -2.585767|    0.012294|   -0.072125|
|         659|  1.0627e+00|   -8.070981|   -2.615461|    0.011805|   -0.087602|
|         660|  1.0628e+00|   -8.108404|   -2.653546|    0.011245|   -0.101454|
|         661|  1.0629e+00|   -8.155415|   -2.701486|    0.010621|   -0.113508|
|         662|  1.0628e+00|   -8.214130|   -2.761539|    0.009944|   -0.123618|
|         663|  1.0628e+00|   -8.287917|   -2.837343|    0.009224|   -0.131669|
|         664|  1.0626e+00|   -8.382481|   -2.935192|    0.008471|   -0.137576|
|         665|  1.0624e+00|   -8.508470|   -3.067257|    0.007697|   -0.141288|
|         666|  1.0622e+00|   -8.688767|   -3.261675|    0.006914|   -0.142784|
|         667|  1.0619e+00|   -8.979223|   -3.604163|    0.006132|   -0.142077|
|         668|  1.0620e+00|   -9.199694|   -3.802815|    0.005363|   -0.139211|
|         669|  1.0619e+00|   -8.848636|   -3.370707|    0.004618|   -0.134258|
|         670|  1.0619e+00|   -8.621276|   -3.144547|    0.003908|   -0.127323|
|         671|  1.0621e+00|   -8.475044|   -3.001013|    0.003241|   -0.118535|
|         672|  1.0617e+00|   -8.371284|   -2.899175|    0.002628|   -0.108047|
|         673|  1.0615e+00|   -8.293669|   -2.822889|    0.002076|   -0.096036|
|         674|  1.0612e+00|   -8.234100|   -2.764256|    0.001593|   -0.082698|
|         675|  1.0611e+00|   -8.188044|   -2.718870|    0.001186|   -0.068244|
|         676|  1.0607e+00|   -8.152748|   -2.684057|    0.000859|   -0.052897|
|         677|  1.0605e+00|   -8.126457|   -2.658106|    0.000616|   -0.036893|
|         678|  1.0603e+00|   -8.108018|   -2.639896|    0.000461|   -0.020469|
|         679|  1.0602e+00|   -8.096679|   -2.628694|    0.000393|   -0.003869|
|         680|  1.0601e+00|   -8.091976|   -2.624043|    0.000415|    0.012668|
|         681|  1.0596e+00|   -8.093666|   -2.625708|    0.000523|    0.028904|
|         682|  1.0594e+00|   -8.101702|   -2.633639|    0.000716|    0.044612|
|         683|  1.0593e+00|   -8.116225|   -2.647970|    0.000991|    0.059574|
|         684|  1.0588e+00|   -8.137582|   -2.669036|    0.001342|    0.073588|
|         685|  1.0587e+00|   -8.166368|   -2.697411|    0.001763|    0.086467|
|         686|  1.0584e+00|   -8.203513|   -2.733991|    0.002248|    0.098043|
|         687|  1.0583e+00|   -8.250437|   -2.780140|    0.002790|    0.108171|
|         688|  1.0581e+00|   -8.309324|   -2.837953|    0.003379|    0.116726|
|         689|  1.0577e+00|   -8.383677|   -2.910776|    0.004007|    0.123612|
|         690|  1.0573e+00|   -8.479490|   -3.004316|    0.004665|    0.128754|
|         691|  1.0571e+00|   -8.608111|   -3.129358|    0.005342|    0.132105|
|         692|  1.0568e+00|   -8.794556|   -3.309922|    0.006028|    0.133645|
|         693|  1.0565e+00|   -9.102708|   -3.615480|    0.006715|    0.133379|
|         694|  1.0560e+00|   -9.284906|   -3.963194|    0.007391|    0.131338|
|         695|  1.0557e+00|   -8.916214|   -3.509183|    0.008047|    0.127580|
|         696|  1.0552e+00|   -8.693711|   -3.261358|    0.008674|    0.122183|
|         697|  1.0550e+00|   -8.549977|   -3.108239|    0.009264|    0.115251|
|         698|  1.0545e+00|   -8.447425|   -3.000983|    0.009807|    0.106906|
|         699|  1.0543e+00|   -8.370339|   -2.921141|    0.010297|    0.097289|
|         700|  1.0540e+00|   -8.310897|   -2.859934|    0.010727|    0.086558|
|         701|  1.0537e+00|   -8.264697|   -2.812545|    0.011092|    0.074883|
|         702|  1.0535e+00|   -8.229056|   -2.776083|    0.011387|    0.062447|
|         703|  1.0532e+00|   -8.202249|   -2.748712|    0.011609|    0.049438|
|         704|  1.0528e+00|   -8.183141|   -2.729229|    0.011754|    0.036052|
|         705|  1.0526e+00|   -8.170978|   -2.716846|    0.011822|    0.022487|
|         706|  1.0525e+00|   -8.165287|   -2.711064|    0.011813|    0.008939|
|         707|  1.0522e+00|   -8.165804|   -2.711612|    0.011728|   -0.004397|
|         708|  1.0524e+00|   -8.172446|   -2.718409|    0.011568|   -0.017333|
|         709|  1.0522e+00|   -8.185306|   -2.731554|    0.011336|   -0.029691|
|         710|  1.0522e+00|   -8.204654|   -2.751340|    0.011038|   -0.041301|
|         711|  1.0523e+00|   -8.230978|   -2.778292|    0.010677|   -0.052010|
|         712|  1.0525e+00|   -8.265042|   -2.813231|    0.010259|   -0.061677|
|         713|  1.0524e+00|   -8.307996|   -2.857413|    0.009792|   -0.070179|
|         714|  1.0526e+00|   -8.361584|   -2.912750|    0.009282|   -0.077412|
|         715|  1.0526e+00|   -8.428502|   -2.982267|    0.008738|   -0.083293|
|         716|  1.0525e+00|   -8.513144|   -3.071023|    0.008166|   -0.087757|
|         717|  1.0522e+00|   -8.623194|   -3.188299|    0.007577|   -0.090762|
|         718|  1.0516e+00|   -8.773469|   -3.353708|    0.006978|   -0.092287|
|         719|  1.0514e+00|   -8.994501|   -3.618296|    0.006379|   -0.092332|
|         720|  1.0510e+00|   -9.275913|   -4.010233|    0.005787|   -0.090920|
|         721|  1.0507e+00|   -9.114600|   -3.652959|    0.005212|   -0.088093|
|         722|  1.0502e+00|   -8.862799|   -3.382973|    0.004661|   -0.083912|
|         723|  1.0500e+00|   -8.697421|   -3.219006|    0.004142|   -0.078460|
|         724|  1.0498e+00|   -8.581741|   -3.105563|    0.003663|   -0.071832|
|         725|  1.0496e+00|   -8.496092|   -3.021680|    0.003229|   -0.064142|
|         726|  1.0494e+00|   -8.430678|   -2.957571|    0.002846|   -0.055516|
|         727|  1.0492e+00|   -8.380097|   -2.907949|    0.002521|   -0.046092|
|         728|  1.0490e+00|   -8.341122|   -2.869675|    0.002255|   -0.036017|
|         729|  1.0487e+00|   -8.311709|   -2.840768|    0.002054|   -0.025446|
|         730|  1.0488e+00|   -8.290524|   -2.819933|    0.001918|   -0.014538|
|         731|  1.0491e+00|   -8.276690|   -2.806320|    0.001850|   -0.003453|
|         732|  1.0492e+00|   -8.269649|   -2.799384|    0.001849|    0.007645|
|         733|  1.0486e+00|   -8.269083|   -2.798818|    0.001915|    0.018599|
|         734|  1.0485e+00|   -8.274879|   -2.804508|    0.002047|    0.029253|
|         735|  1.0485e+00|   -8.287111|   -2.816523|    0.002241|    0.039459|
|         736|  1.0483e+00|   -8.306049|   -2.835120|    0.002494|    0.049077|
|         737|  1.0481e+00|   -8.332197|   -2.860779|    0.002802|    0.057979|
|         738|  1.0479e+00|   -8.366355|   -2.894265|    0.003159|    0.066049|
|         739|  1.0475e+00|   -8.409746|   -2.936748|    0.003561|    0.073182|
|         740|  1.0474e+00|   -8.464234|   -2.990005|    0.004001|    0.079291|
|         741|  1.0473e+00|   -8.532745|   -3.056827|    0.004473|    0.084305|
|         742|  1.0472e+00|   -8.620107|   -3.141825|    0.004968|    0.088168|
|         743|  1.0473e+00|   -8.734931|   -3.253305|    0.005480|    0.090842|
|         744|  1.0475e+00|   -8.894222|   -3.408300|    0.006001|    0.092307|
|         745|  1.0472e+00|   -9.132895|   -3.649335|    0.006524|    0.092560|
|         746|  1.0474e+00|   -9.385557|   -4.053606|    0.007041|    0.091617|
|         747|  1.0478e+00|   -9.148924|   -3.802118|    0.007544|    0.089509|
|         748|  1.0479e+00|   -8.911962|   -3.504790|    0.008027|    0.086284|
|         749|  1.0478e+00|   -8.755945|   -3.328831|    0.008483|    0.082005|
|         750|  1.0475e+00|   -8.645256|   -3.208950|    0.008906|    0.076751|
|         751|  1.0469e+00|   -8.562416|   -3.120992|    0.009289|    0.070610|
|         752|  1.0469e+00|   -8.498605|   -3.054006|    0.009628|    0.063684|
|         753|  1.0466e+00|   -8.448887|   -3.002188|    0.009918|    0.056085|
|         754|  1.0464e+00|   -8.410269|   -2.962134|    0.010156|    0.047932|
|         755|  1.0464e+00|   -8.380838|   -2.931712|    0.010339|    0.039349|
|         756|  1.0464e+00|   -8.359329|   -2.909534|    0.010465|    0.030467|
|         757|  1.0464e+00|   -8.344901|   -2.894685|    0.010532|    0.021418|
|         758|  1.0463e+00|   -8.337005|   -2.886577|    0.010541|    0.012333|
|         759|  1.0463e+00|   -8.335315|   -2.884862|    0.010492|    0.003343|
|         760|  1.0460e+00|   -8.339689|   -2.889394|    0.010385|   -0.005425|
|         761|  1.0458e+00|   -8.350153|   -2.900205|    0.010224|   -0.013847|
|         762|  1.0455e+00|   -8.366898|   -2.917516|    0.010011|   -0.021810|
|         763|  1.0454e+00|   -8.390311|   -2.941756|    0.009750|   -0.029205|
|         764|  1.0455e+00|   -8.421014|   -2.973624|    0.009445|   -0.035936|
|         765|  1.0454e+00|   -8.459946|   -3.014187|    0.009101|   -0.041915|
|         766|  1.0451e+00|   -8.508511|   -3.065067|    0.008723|   -0.047070|
|         767|  1.0450e+00|   -8.568832|   -3.128774|    0.008318|   -0.051338|
|         768|  1.0450e+00|   -8.644219|   -3.209395|    0.007891|   -0.054672|
|         769|  1.0449e+00|   -8.740100|   -3.314080|    0.007448|   -0.057039|
|         770|  1.0448e+00|   -8.865888|   -3.456823|    0.006996|   -0.058419|
|         771|  1.0442e+00|   -9.037851|   -3.669580|    0.006543|   -0.058807|
|         772|  1.0441e+00|   -9.262500|   -4.013957|    0.006094|   -0.058213|
|         773|  1.0439e+00|   -9.315012|   -3.943396|    0.005655|   -0.056660|
|         774|  1.0437e+00|   -9.102028|   -3.631510|    0.005233|   -0.054186|
|         775|  1.0437e+00|   -8.923374|   -3.442937|    0.004834|   -0.050839|
|         776|  1.0438e+00|   -8.795898|   -3.315832|    0.004463|   -0.046681|
|         777|  1.0439e+00|   -8.701731|   -3.223244|    0.004126|   -0.041784|
|         778|  1.0442e+00|   -8.630006|   -3.152996|    0.003826|   -0.036230|
|         779|  1.0442e+00|   -8.574528|   -3.098708|    0.003568|   -0.030107|
|         780|  1.0443e+00|   -8.531583|   -3.056678|    0.003356|   -0.023512|
|         781|  1.0443e+00|   -8.498822|   -3.024602|    0.003190|   -0.016547|
|         782|  1.0444e+00|   -8.474715|   -3.000985|    0.003074|   -0.009317|
|         783|  1.0442e+00|   -8.458246|   -2.984842|    0.003009|   -0.001930|
|         784|  1.0444e+00|   -8.448757|   -2.975533|    0.002994|    0.005505|
|         785|  1.0445e+00|   -8.445852|   -2.972672|    0.003030|    0.012883|
|         786|  1.0442e+00|   -8.449346|   -2.976078|    0.003116|    0.020097|
|         787|  1.0440e+00|   -8.459245|   -2.985752|    0.003249|    0.027047|
|         788|  1.0436e+00|   -8.475745|   -3.001881|    0.003427|    0.033637|
|         789|  1.0434e+00|   -8.499258|   -3.024856|    0.003648|    0.039779|
|         790|  1.0431e+00|   -8.530460|   -3.055322|    0.003907|    0.045391|
|         791|  1.0432e+00|   -8.570391|   -3.094275|    0.004201|    0.050401|
|         792|  1.0429e+00|   -8.620620|   -3.143222|    0.004525|    0.054746|
|         793|  1.0428e+00|   -8.683550|   -3.204488|    0.004873|    0.058375|
|         794|  1.0428e+00|   -8.762990|   -3.281816|    0.005241|    0.061245|
|         795|  1.0427e+00|   -8.865277|   -3.381653|    0.005623|    0.063329|
|         796|  1.0426e+00|   -9.001418|   -3.516324|    0.006014|    0.064607|
|         797|  1.0428e+00|   -9.188338|   -3.713041|    0.006407|    0.065074|
|         798|  1.0431e+00|   -9.395342|   -4.031564|    0.006797|    0.064735|
|         799|  1.0429e+00|   -9.325802|   -4.088033|    0.007179|    0.063607|
|         800|  1.0426e+00|   -9.114846|   -3.758140|    0.007547|    0.061720|
|         801|  1.0423e+00|   -8.955132|   -3.555316|    0.007896|    0.059110|
|         802|  1.0425e+00|   -8.839085|   -3.420702|    0.008220|    0.055828|
|         803|  1.0428e+00|   -8.751696|   -3.323503|    0.008517|    0.051929|
|         804|  1.0429e+00|   -8.684141|   -3.250074|    0.008781|    0.047480|
|         805|  1.0432e+00|   -8.631264|   -3.193402|    0.009010|    0.042552|
|         806|  1.0433e+00|   -8.589890|   -3.149465|    0.009200|    0.037223|
|         807|  1.0435e+00|   -8.557974|   -3.115783|    0.009350|    0.031576|
|         808|  1.0434e+00|   -8.534153|   -3.090755|    0.009456|    0.025696|
|         809|  1.0433e+00|   -8.517510|   -3.073325|    0.009520|    0.019671|
|         810|  1.0431e+00|   -8.507434|   -3.062801|    0.009539|    0.013590|
|         811|  1.0426e+00|   -8.503543|   -3.058758|    0.009514|    0.007540|
|         812|  1.0426e+00|   -8.505637|   -3.060979|    0.009447|    0.001609|
|         813|  1.0425e+00|   -8.513679|   -3.069430|    0.009338|   -0.004122|
|         814|  1.0425e+00|   -8.527785|   -3.084259|    0.009189|   -0.009573|
|         815|  1.0423e+00|   -8.548242|   -3.105808|    0.009004|   -0.014670|
|         816|  1.0422e+00|   -8.575536|   -3.134662|    0.008785|   -0.019346|
|         817|  1.0423e+00|   -8.610406|   -3.171721|    0.008535|   -0.023539|
|         818|  1.0421e+00|   -8.653945|   -3.218351|    0.008259|   -0.027199|
|         819|  1.0420e+00|   -8.707757|   -3.276634|    0.007961|   -0.030279|
|         820|  1.0419e+00|   -8.774236|   -3.349867|    0.007646|   -0.032745|
|         821|  1.0418e+00|   -8.857027|   -3.443581|    0.007318|   -0.034570|
|         822|  1.0416e+00|   -8.961751|   -3.567884|    0.006981|   -0.035740|
|         823|  1.0415e+00|   -9.096304|   -3.743374|    0.006642|   -0.036245|
|         824|  1.0413e+00|   -9.262556|   -4.010084|    0.006305|   -0.036091|
|         825|  1.0411e+00|   -9.385377|   -4.174448|    0.005974|   -0.035287|
|         826|  1.0409e+00|   -9.301372|   -3.886530|    0.005654|   -0.033857|
|         827|  1.0406e+00|   -9.141270|   -3.672442|    0.005351|   -0.031831|
|         828|  1.0404e+00|   -9.009138|   -3.529932|    0.005067|   -0.029245|
|         829|  1.0398e+00|   -8.908329|   -3.427573|    0.004808|   -0.026146|
|         830|  1.0397e+00|   -8.830794|   -3.350520|    0.004576|   -0.022586|
|         831|  1.0394e+00|   -8.770532|   -3.291138|    0.004374|   -0.018623|
|         832|  1.0393e+00|   -8.723584|   -3.245054|    0.004205|   -0.014320|
|         833|  1.0391e+00|   -8.687396|   -3.209593|    0.004070|   -0.009743|
|         834|  1.0392e+00|   -8.660274|   -3.183035|    0.003973|   -0.004963|
|         835|  1.0394e+00|   -8.641080|   -3.164243|    0.003912|   -0.000051|
|         836|  1.0398e+00|   -8.629060|   -3.152469|    0.003890|    0.004921|
|         837|  1.0400e+00|   -8.623737|   -3.147245|    0.003906|    0.009881|
|         838|  1.0403e+00|   -8.624859|   -3.148320|    0.003959|    0.014757|
|         839|  1.0404e+00|   -8.632359|   -3.155627|    0.004048|    0.019482|
|         840|  1.0407e+00|   -8.646360|   -3.169282|    0.004171|    0.023989|
|         841|  1.0409e+00|   -8.667179|   -3.189590|    0.004326|    0.028218|
|         842|  1.0411e+00|   -8.695365|   -3.217090|    0.004511|    0.032113|
|         843|  1.0409e+00|   -8.731771|   -3.252619|    0.004723|    0.035622|
|         844|  1.0407e+00|   -8.777669|   -3.297448|    0.004958|    0.038701|
|         845|  1.0409e+00|   -8.834943|   -3.353507|    0.005212|    0.041312|
|         846|  1.0411e+00|   -8.906415|   -3.423828|    0.005482|    0.043426|
|         847|  1.0411e+00|   -8.996338|   -3.513425|    0.005764|    0.045020|
[...]
|        1771|  9.0699e-01|   -9.654061|   -4.496877|    0.006568|    0.009411|
|        1772|  9.0686e-01|   -9.654364|   -4.496916|    0.006568|    0.009413|
|        1773|  9.0669e-01|   -9.654664|   -4.496953|    0.006567|    0.009415|
|        1774|  9.0643e-01|   -9.654960|   -4.496990|    0.006567|    0.009418|
|        1775|  9.0643e-01|   -9.655250|   -4.497027|    0.006567|    0.009421|
|        1776|  9.0644e-01|   -9.655537|   -4.497067|    0.006566|    0.009424|
|        1777|  9.0640e-01|   -9.655821|   -4.497105|    0.006566|    0.009427|
|        1778|  9.0644e-01|   -9.656103|   -4.497143|    0.006566|    0.009431|
|        1779|  9.0641e-01|   -9.656384|   -4.497181|    0.006566|    0.009434|
|        1780|  9.0633e-01|   -9.656662|   -4.497219|    0.006566|    0.009438|
|        1781|  9.0632e-01|   -9.656937|   -4.497259|    0.006566|    0.009442|
|        1782|  9.0633e-01|   -9.657208|   -4.497300|    0.006566|    0.009445|
|        1783|  9.0620e-01|   -9.657474|   -4.497344|    0.006567|    0.009449|
|        1784|  9.0607e-01|   -9.657737|   -4.497390|    0.006567|    0.009452|
|        1785|  9.0592e-01|   -9.657997|   -4.497437|    0.006567|    0.009455|
|        1786|  9.0578e-01|   -9.658254|   -4.497487|    0.006568|    0.009458|
|        1787|  9.0554e-01|   -9.658509|   -4.497537|    0.006568|    0.009461|
|        1788|  9.0542e-01|   -9.658761|   -4.497589|    0.006569|    0.009463|
|        1789|  9.0529e-01|   -9.659012|   -4.497640|    0.006570|    0.009465|
|        1790|  9.0532e-01|   -9.659264|   -4.497690|    0.006570|    0.009467|
|        1791|  9.0536e-01|   -9.659517|   -4.497738|    0.006571|    0.009468|
|        1792|  9.0525e-01|   -9.659770|   -4.497784|    0.006571|    0.009469|
|        1793|  9.0522e-01|   -9.660023|   -4.497829|    0.006572|    0.009470|
|        1794|  9.0512e-01|   -9.660277|   -4.497872|    0.006573|    0.009470|
|        1795|  9.0510e-01|   -9.660530|   -4.497915|    0.006573|    0.009469|
|        1796|  9.0500e-01|   -9.660785|   -4.497956|    0.006574|    0.009469|
|        1797|  9.0497e-01|   -9.661041|   -4.497996|    0.006574|    0.009468|
|        1798|  9.0490e-01|   -9.661300|   -4.498034|    0.006575|    0.009466|
|        1799|  9.0484e-01|   -9.661560|   -4.498072|    0.006575|    0.009464|
|        1800|  9.0473e-01|   -9.661822|   -4.498109|    0.006576|    0.009463|
|        1801|  9.0472e-01|   -9.662086|   -4.498146|    0.006576|    0.009460|
|        1802|  9.0460e-01|   -9.662352|   -4.498183|    0.006577|    0.009458|
|        1803|  9.0446e-01|   -9.662622|   -4.498220|    0.006577|    0.009455|
|        1804|  9.0428e-01|   -9.662895|   -4.498257|    0.006577|    0.009453|
|        1805|  9.0393e-01|   -9.663172|   -4.498294|    0.006577|    0.009450|
|        1806|  9.0386e-01|   -9.663171|   -4.498391|    0.006577|    0.009447|
|        1807|  9.0365e-01|   -9.663482|   -4.498505|    0.006577|    0.009444|
|        1808|  9.0350e-01|   -9.663834|   -4.498515|    0.006577|    0.009441|
|        1809|  9.0331e-01|   -9.664201|   -4.498498|    0.006577|    0.009439|
|        1810|  9.0319e-01|   -9.664558|   -4.498490|    0.006577|    0.009436|
|        1811|  9.0304e-01|   -9.664895|   -4.498503|    0.006577|    0.009433|
|        1812|  9.0291e-01|   -9.665214|   -4.498539|    0.006576|    0.009431|
|        1813|  9.0277e-01|   -9.665519|   -4.498591|    0.006576|    0.009429|
|        1814|  9.0253e-01|   -9.665818|   -4.498648|    0.006576|    0.009427|
|        1815|  9.0244e-01|   -9.666112|   -4.498708|    0.006575|    0.009426|
|        1816|  9.0233e-01|   -9.666407|   -4.498761|    0.006575|    0.009424|
|        1817|  9.0217e-01|   -9.666705|   -4.498809|    0.006574|    0.009423|
|        1818|  9.0201e-01|   -9.667004|   -4.498852|    0.006574|    0.009423|
|        1819|  9.0184e-01|   -9.667303|   -4.498893|    0.006573|    0.009423|
|        1820|  9.0168e-01|   -9.667602|   -4.498932|    0.006573|    0.009423|
|        1821|  9.0145e-01|   -9.667899|   -4.498971|    0.006573|    0.009423|
|        1822|  9.0131e-01|   -9.668192|   -4.499011|    0.006572|    0.009424|
|        1823|  9.0115e-01|   -9.668485|   -4.499049|    0.006572|    0.009424|
|        1824|  9.0099e-01|   -9.668776|   -4.499086|    0.006571|    0.009426|
|        1825|  9.0084e-01|   -9.669067|   -4.499122|    0.006571|    0.009427|
|        1826|  9.0070e-01|   -9.669357|   -4.499157|    0.006571|    0.009429|
|        1827|  9.0055e-01|   -9.669645|   -4.499192|    0.006571|    0.009431|
|        1828|  9.0034e-01|   -9.669932|   -4.499227|    0.006570|    0.009433|
|        1829|  9.0022e-01|   -9.670215|   -4.499264|    0.006570|    0.009435|
|        1830|  9.0009e-01|   -9.670497|   -4.499301|    0.006570|    0.009437|
|        1831|  9.0009e-01|   -9.670777|   -4.499338|    0.006570|    0.009440|
|        1832|  8.9987e-01|   -9.671055|   -4.499376|    0.006570|    0.009442|
|        1833|  8.9972e-01|   -9.671330|   -4.499417|    0.006570|    0.009445|
|        1834|  8.9961e-01|   -9.671602|   -4.499458|    0.006570|    0.009447|
|        1835|  8.9934e-01|   -9.671873|   -4.499499|    0.006571|    0.009450|
|        1836|  8.9922e-01|   -9.672153|   -4.499533|    0.006571|    0.009452|
|        1837|  8.9916e-01|   -9.672422|   -4.499578|    0.006571|    0.009454|
|        1838|  8.9910e-01|   -9.672685|   -4.499623|    0.006571|    0.009456|
|        1839|  8.9906e-01|   -9.672950|   -4.499669|    0.006572|    0.009458|
|        1840|  8.9901e-01|   -9.673216|   -4.499713|    0.006572|    0.009460|
|        1841|  8.9890e-01|   -9.673484|   -4.499755|    0.006573|    0.009461|
|        1842|  8.9880e-01|   -9.673752|   -4.499796|    0.006573|    0.009463|
|        1843|  8.9854e-01|   -9.674020|   -4.499836|    0.006573|    0.009464|
|        1844|  8.9844e-01|   -9.674285|   -4.499878|    0.006574|    0.009464|
|        1845|  8.9826e-01|   -9.674547|   -4.499921|    0.006574|    0.009465|
|        1846|  8.9812e-01|   -9.674810|   -4.499963|    0.006575|    0.009465|
|        1847|  8.9802e-01|   -9.675074|   -4.500006|    0.006575|    0.009465|
|        1848|  8.9776e-01|   -9.675339|   -4.500047|    0.006576|    0.009465|
|        1849|  8.9758e-01|   -9.675606|   -4.500087|    0.006576|    0.009464|
|        1850|  8.9744e-01|   -9.675873|   -4.500126|    0.006577|    0.009463|
|        1851|  8.9728e-01|   -9.676143|   -4.500164|    0.006577|    0.009462|
|        1852|  8.9711e-01|   -9.676415|   -4.500200|    0.006577|    0.009461|
|        1853|  8.9692e-01|   -9.676690|   -4.500236|    0.006578|    0.009460|
|        1854|  8.9678e-01|   -9.676966|   -4.500272|    0.006578|    0.009458|
|        1855|  8.9664e-01|   -9.677243|   -4.500307|    0.006578|    0.009457|
|        1856|  8.9637e-01|   -9.677522|   -4.500343|    0.006578|    0.009455|
|        1857|  8.9628e-01|   -9.677796|   -4.500373|    0.006578|    0.009453|
|        1858|  8.9618e-01|   -9.678077|   -4.500419|    0.006578|    0.009451|
|        1859|  8.9609e-01|   -9.678360|   -4.500458|    0.006578|    0.009449|
|        1860|  8.9606e-01|   -9.678646|   -4.500496|    0.006578|    0.009447|
|        1861|  8.9595e-01|   -9.678934|   -4.500533|    0.006578|    0.009446|
|        1862|  8.9593e-01|   -9.679225|   -4.500570|    0.006578|    0.009444|
|        1863|  8.9584e-01|   -9.679516|   -4.500608|    0.006578|    0.009442|
|        1864|  8.9579e-01|   -9.679807|   -4.500646|    0.006578|    0.009441|
|        1865|  8.9570e-01|   -9.680099|   -4.500685|    0.006578|    0.009439|
|        1866|  8.9550e-01|   -9.680392|   -4.500724|    0.006577|    0.009438|
|        1867|  8.9546e-01|   -9.680683|   -4.500765|    0.006577|    0.009437|
|        1868|  8.9546e-01|   -9.680974|   -4.500807|    0.006577|    0.009436|
|        1869|  8.9541e-01|   -9.681265|   -4.500848|    0.006577|    0.009435|
|        1870|  8.9528e-01|   -9.681557|   -4.500888|    0.006576|    0.009435|
|        1871|  8.9528e-01|   -9.681852|   -4.500926|    0.006576|    0.009434|
|        1872|  8.9524e-01|   -9.682149|   -4.500962|    0.006576|    0.009434|
|        1873|  8.9518e-01|   -9.682445|   -4.500997|    0.006575|    0.009434|
|        1874|  8.9512e-01|   -9.682739|   -4.501031|    0.006575|    0.009435|
|        1875|  8.9498e-01|   -9.683030|   -4.501066|    0.006575|    0.009435|
|        1876|  8.9490e-01|   -9.683317|   -4.501102|    0.006575|    0.009436|
|        1877|  8.9473e-01|   -9.683603|   -4.501139|    0.006574|    0.009437|
|        1878|  8.9460e-01|   -9.683887|   -4.501176|    0.006574|    0.009438|
|        1879|  8.9437e-01|   -9.684171|   -4.501212|    0.006574|    0.009439|
|        1880|  8.9427e-01|   -9.684453|   -4.501249|    0.006574|    0.009441|
|        1881|  8.9412e-01|   -9.684735|   -4.501285|    0.006574|    0.009442|
|        1882|  8.9387e-01|   -9.685017|   -4.501320|    0.006574|    0.009444|
|        1883|  8.9372e-01|   -9.685297|   -4.501356|    0.006574|    0.009445|
|        1884|  8.9353e-01|   -9.685576|   -4.501392|    0.006574|    0.009447|
|        1885|  8.9342e-01|   -9.685854|   -4.501429|    0.006574|    0.009449|
|        1886|  8.9327e-01|   -9.686133|   -4.501465|    0.006574|    0.009450|
|        1887|  8.9311e-01|   -9.686411|   -4.501502|    0.006574|    0.009452|
|        1888|  8.9296e-01|   -9.686689|   -4.501538|    0.006574|    0.009454|
|        1889|  8.9278e-01|   -9.686967|   -4.501575|    0.006574|    0.009455|
|        1890|  8.9267e-01|   -9.687241|   -4.501613|    0.006575|    0.009457|
|        1891|  8.9257e-01|   -9.687515|   -4.501652|    0.006575|    0.009458|
|        1892|  8.9246e-01|   -9.687788|   -4.501691|    0.006575|    0.009459|
|        1893|  8.9238e-01|   -9.688059|   -4.501731|    0.006575|    0.009460|
|        1894|  8.9237e-01|   -9.688331|   -4.501771|    0.006576|    0.009461|
|        1895|  8.9233e-01|   -9.688603|   -4.501810|    0.006576|    0.009462|
|        1896|  8.9224e-01|   -9.688876|   -4.501849|    0.006576|    0.009463|
|        1897|  8.9220e-01|   -9.689158|   -4.501877|    0.006577|    0.009463|
|        1898|  8.9221e-01|   -9.689436|   -4.501914|    0.006577|    0.009463|
|        1899|  8.9211e-01|   -9.689711|   -4.501952|    0.006577|    0.009464|
|        1900|  8.9202e-01|   -9.689982|   -4.501991|    0.006578|    0.009463|
|        1901|  8.9200e-01|   -9.690253|   -4.502031|    0.006578|    0.009463|
|        1902|  8.9194e-01|   -9.690525|   -4.502070|    0.006578|    0.009463|
|        1903|  8.9175e-01|   -9.690798|   -4.502109|    0.006579|    0.009462|
|        1904|  8.9167e-01|   -9.691080|   -4.502143|    0.006579|    0.009462|
|        1905|  8.9165e-01|   -9.691355|   -4.502184|    0.006579|    0.009461|
|        1906|  8.9159e-01|   -9.691631|   -4.502224|    0.006579|    0.009460|
|        1907|  8.9146e-01|   -9.691910|   -4.502262|    0.006579|    0.009459|
|        1908|  8.9131e-01|   -9.692194|   -4.502298|    0.006580|    0.009458|
|        1909|  8.9116e-01|   -9.692482|   -4.502333|    0.006580|    0.009456|
|        1910|  8.9102e-01|   -9.692771|   -4.502365|    0.006580|    0.009455|
|        1911|  8.9093e-01|   -9.693061|   -4.502398|    0.006580|    0.009454|
|        1912|  8.9073e-01|   -9.693349|   -4.502431|    0.006580|    0.009453|
|        1913|  8.9064e-01|   -9.693637|   -4.502465|    0.006580|    0.009452|
|        1914|  8.9062e-01|   -9.693923|   -4.502501|    0.006580|    0.009450|
|        1915|  8.9052e-01|   -9.694209|   -4.502538|    0.006580|    0.009449|
|        1916|  8.9035e-01|   -9.694494|   -4.502575|    0.006580|    0.009448|
|        1917|  8.9013e-01|   -9.694780|   -4.502612|    0.006580|    0.009447|
|        1918|  8.9000e-01|   -9.695062|   -4.502650|    0.006579|    0.009446|
|        1919|  8.8996e-01|   -9.695349|   -4.502688|    0.006579|    0.009446|
|        1920|  8.8992e-01|   -9.695639|   -4.502724|    0.006579|    0.009445|
|        1921|  8.8985e-01|   -9.695930|   -4.502758|    0.006579|    0.009444|
|        1922|  8.8973e-01|   -9.696223|   -4.502791|    0.006579|    0.009444|
|        1923|  8.8957e-01|   -9.696514|   -4.502826|    0.006578|    0.009444|
|        1924|  8.8944e-01|   -9.696805|   -4.502860|    0.006578|    0.009444|
|        1925|  8.8919e-01|   -9.697095|   -4.502894|    0.006578|    0.009444|
|        1926|  8.8906e-01|   -9.697383|   -4.502930|    0.006578|    0.009444|
|        1927|  8.8888e-01|   -9.697670|   -4.502965|    0.006578|    0.009444|
|        1928|  8.8878e-01|   -9.697956|   -4.503000|    0.006578|    0.009445|
|        1929|  8.8861e-01|   -9.698243|   -4.503034|    0.006577|    0.009445|
|        1930|  8.8845e-01|   -9.698530|   -4.503068|    0.006577|    0.009446|
|        1931|  8.8825e-01|   -9.698816|   -4.503101|    0.006577|    0.009447|
|        1932|  8.8810e-01|   -9.699101|   -4.503134|    0.006577|    0.009448|
|        1933|  8.8800e-01|   -9.699386|   -4.503167|    0.006577|    0.009449|
|        1934|  8.8786e-01|   -9.699669|   -4.503200|    0.006577|    0.009450|
|        1935|  8.8782e-01|   -9.699950|   -4.503234|    0.006577|    0.009451|
|        1936|  8.8763e-01|   -9.700231|   -4.503268|    0.006577|    0.009452|
|        1937|  8.8756e-01|   -9.700509|   -4.503304|    0.006577|    0.009453|
|        1938|  8.8754e-01|   -9.700788|   -4.503340|    0.006577|    0.009454|
|        1939|  8.8747e-01|   -9.701066|   -4.503376|    0.006577|    0.009455|
|        1940|  8.8728e-01|   -9.701345|   -4.503411|    0.006577|    0.009457|
|        1941|  8.8713e-01|   -9.701625|   -4.503447|    0.006577|    0.009458|
|        1942|  8.8699e-01|   -9.701906|   -4.503481|    0.006578|    0.009459|
|        1943|  8.8685e-01|   -9.702188|   -4.503516|    0.006578|    0.009460|
|        1944|  8.8663e-01|   -9.702469|   -4.503550|    0.006578|    0.009461|
|        1945|  8.8643e-01|   -9.702747|   -4.503586|    0.006578|    0.009461|
|        1946|  8.8628e-01|   -9.703024|   -4.503623|    0.006578|    0.009462|
|        1947|  8.8610e-01|   -9.703302|   -4.503660|    0.006579|    0.009463|
|        1948|  8.8597e-01|   -9.703581|   -4.503696|    0.006579|    0.009463|
|        1949|  8.8581e-01|   -9.703861|   -4.503731|    0.006579|    0.009464|
|        1950|  8.8560e-01|   -9.704142|   -4.503766|    0.006579|    0.009464|
|        1951|  8.8547e-01|   -9.704422|   -4.503801|    0.006580|    0.009464|
|        1952|  8.8524e-01|   -9.704703|   -4.503836|    0.006580|    0.009464|
|        1953|  8.8520e-01|   -9.704985|   -4.503871|    0.006580|    0.009464|
|        1954|  8.8518e-01|   -9.705265|   -4.503906|    0.006580|    0.009464|
|        1955|  8.8513e-01|   -9.705546|   -4.503941|    0.006580|    0.009463|
|        1956|  8.8507e-01|   -9.705828|   -4.503976|    0.006581|    0.009463|
|        1957|  8.8493e-01|   -9.706112|   -4.504010|    0.006581|    0.009462|
|        1958|  8.8480e-01|   -9.706397|   -4.504043|    0.006581|    0.009462|
|        1959|  8.8465e-01|   -9.706683|   -4.504076|    0.006581|    0.009461|
|        1960|  8.8443e-01|   -9.706969|   -4.504110|    0.006581|    0.009461|
|        1961|  8.8431e-01|   -9.707253|   -4.504144|    0.006581|    0.009460|
|        1962|  8.8417e-01|   -9.707538|   -4.504179|    0.006581|    0.009459|
|        1963|  8.8400e-01|   -9.707823|   -4.504213|    0.006582|    0.009458|
|        1964|  8.8389e-01|   -9.708109|   -4.504247|    0.006582|    0.009457|
|        1965|  8.8376e-01|   -9.708397|   -4.504281|    0.006582|    0.009457|
|        1966|  8.8355e-01|   -9.708685|   -4.504314|    0.006582|    0.009456|
|        1967|  8.8341e-01|   -9.708973|   -4.504348|    0.006582|    0.009455|
|        1968|  8.8324e-01|   -9.709261|   -4.504382|    0.006582|    0.009454|
|        1969|  8.8311e-01|   -9.709548|   -4.504416|    0.006581|    0.009454|
|        1970|  8.8282e-01|   -9.709837|   -4.504450|    0.006581|    0.009453|
|        1971|  8.8278e-01|   -9.710149|   -4.504185|    0.006581|    0.009453|
|        1972|  8.8274e-01|   -9.710500|   -4.504412|    0.006581|    0.009452|
|        1973|  8.8269e-01|   -9.710773|   -4.504504|    0.006581|    0.009452|
|        1974|  8.8258e-01|   -9.711029|   -4.504570|    0.006581|    0.009452|
|        1975|  8.8245e-01|   -9.711294|   -4.504624|    0.006581|    0.009451|
|        1976|  8.8231e-01|   -9.711572|   -4.504664|    0.006581|    0.009451|
|        1977|  8.8219e-01|   -9.711862|   -4.504694|    0.006581|    0.009451|
|        1978|  8.8204e-01|   -9.712156|   -4.504717|    0.006580|    0.009451|
|        1979|  8.8190e-01|   -9.712449|   -4.504741|    0.006580|    0.009452|
|        1980|  8.8176e-01|   -9.712736|   -4.504767|    0.006580|    0.009452|
|        1981|  8.8145e-01|   -9.713018|   -4.504798|    0.006580|    0.009452|
|        1982|  8.8138e-01|   -9.713065|   -4.504924|    0.006580|    0.009453|
|        1983|  8.8127e-01|   -9.713356|   -4.504973|    0.006580|    0.009453|
|        1984|  8.8115e-01|   -9.713690|   -4.504979|    0.006580|    0.009454|
|        1985|  8.8098e-01|   -9.714039|   -4.504971|    0.006580|    0.009455|
|        1986|  8.8089e-01|   -9.714380|   -4.504968|    0.006580|    0.009455|
|        1987|  8.8074e-01|   -9.714706|   -4.504977|    0.006580|    0.009456|
|        1988|  8.8073e-01|   -9.715013|   -4.505002|    0.006580|    0.009457|
|        1989|  8.8076e-01|   -9.715309|   -4.505037|    0.006580|    0.009458|
|        1990|  8.8069e-01|   -9.715597|   -4.505078|    0.006580|    0.009458|
|        1991|  8.8059e-01|   -9.715881|   -4.505119|    0.006580|    0.009459|
|        1992|  8.8060e-01|   -9.716163|   -4.505159|    0.006580|    0.009460|
|        1993|  8.8063e-01|   -9.716444|   -4.505197|    0.006580|    0.009461|
|        1994|  8.8038e-01|   -9.716724|   -4.505232|    0.006580|    0.009461|
|        1995|  8.8035e-01|   -9.717006|   -4.505264|    0.006580|    0.009462|
|        1996|  8.8031e-01|   -9.717283|   -4.505300|    0.006581|    0.009463|
|        1997|  8.8017e-01|   -9.717557|   -4.505335|    0.006581|    0.009463|
|        1998|  8.8009e-01|   -9.717833|   -4.505370|    0.006581|    0.009464|
|        1999|  8.8006e-01|   -9.718113|   -4.505403|    0.006581|    0.009464|

----------------------------- Solver Exit -------------------------------

Maximum number of iterations reached (ITER = 2000) before convergence.
+-----------------------------------------------------------------------+
|      Convergence Field     |     Value    |   Criterion  |  Converged |
+-----------------------------------------------------------------------+
|                    rms[Rho]|      -9.71811|         < -12|          No|
+-----------------------------------------------------------------------+
-------------------------------------------------------------------------
+-----------------------------------------------------------------------+
|        File Writing Summary       |              Filename             |
+-----------------------------------------------------------------------+
|SU2 binary restart                 |restart_flow_gpu.dat               |
|Paraview                           |flow_gpu.vtu                       |
+-----------------------------------------------------------------------+

--------------------------- Finalizing Solver ---------------------------
Deleted CNumerics container.
Deleted CIntegration container.
Deleted CSolver container.
Deleted CIteration container.
Deleted CInterface container.
Deleted CGeometry container.
Deleted CFreeFormDefBox class.
Deleted CSurfaceMovement class.
Deleted CVolumetricMovement class.
Deleted CConfig container.
Deleted nInst container.
Deleted COutput class.
-------------------------------------------------------------------------

------------------------- Exit Success (SU2_CFD) ------------------------

GPU BCGSTAB elapsed: 29:24.76
